data_image0
_chemical_formula_structural       P36
_chemical_formula_sum              "P36"
_cell_length_a       8.05903
_cell_length_b       5.67941
_cell_length_c       30.1089
_cell_angle_alpha    90
_cell_angle_beta     90
_cell_angle_gamma    90

_space_group_name_H-M_alt    "P 1"
_space_group_IT_number       1

loop_
  _space_group_symop_operation_xyz
  'x, y, z'

loop_
  _atom_site_type_symbol
  _atom_site_label
  _atom_site_symmetry_multiplicity
  _atom_site_fract_x
  _atom_site_fract_y
  _atom_site_fract_z
  _atom_site_occupancy
  P   P1        1.0  0.02320  0.44105  0.85437  1.0000
  P   P2        1.0  0.02049  0.94519  0.92376  1.0000
  P   P3        1.0  0.29801  0.89170  0.92402  1.0000
  P   P4        1.0  0.29679  0.39268  0.85383  1.0000
  P   P5        1.0  0.35651  0.77404  0.85402  1.0000
  P   P6        1.0  0.35535  0.28074  0.92432  1.0000
  P   P7        1.0  0.63093  0.22034  0.92385  1.0000
  P   P8        1.0  0.68943  0.10810  0.85353  1.0000
  P   P9        1.0  0.62979  0.72669  0.85293  1.0000
  P   P10       1.0  0.68616  0.60868  0.92313  1.0000
  P   P11       1.0  0.96305  0.55735  0.92437  1.0000
  P   P12       1.0  0.96308  0.05923  0.85336  1.0000
  P   P13       1.0  0.04248  0.55330  0.10476  1.0000
  P   P14       1.0  0.70657  0.88684  0.10318  1.0000
  P   P15       1.0  0.37577  0.71835  0.03181  1.0000
  P   P16       1.0  0.64952  0.77402  0.03266  1.0000
  P   P17       1.0  0.31950  0.60504  0.10266  1.0000
  P   P18       1.0  0.37458  0.21633  0.10332  1.0000
  P   P19       1.0  0.04316  0.05242  0.03357  1.0000
  P   P20       1.0  0.31890  0.10353  0.03261  1.0000
  P   P21       1.0  0.98403  0.94122  0.10426  1.0000
  P   P22       1.0  0.70799  0.39002  0.03233  1.0000
  P   P23       1.0  0.98268  0.43673  0.03467  1.0000
  P   P24       1.0  0.65037  0.27593  0.10311  1.0000
  P   P25       1.0  0.02443  0.44363  0.21388  1.0000
  P   P26       1.0  0.02400  0.94699  0.28381  1.0000
  P   P27       1.0  0.29964  0.89388  0.28223  1.0000
  P   P28       1.0  0.29880  0.39731  0.21172  1.0000
  P   P29       1.0  0.35770  0.78086  0.21196  1.0000
  P   P30       1.0  0.35619  0.28006  0.28210  1.0000
  P   P31       1.0  0.63202  0.22746  0.28238  1.0000
  P   P32       1.0  0.68880  0.11008  0.21223  1.0000
  P   P33       1.0  0.63143  0.72519  0.21190  1.0000
  P   P34       1.0  0.68943  0.61372  0.28262  1.0000
  P   P35       1.0  0.96518  0.56115  0.28373  1.0000
  P   P36       1.0  0.96401  0.06013  0.21344  1.0000
