data_image0
_chemical_formula_structural       P36
_chemical_formula_sum              "P36"
_cell_length_a       8.05903
_cell_length_b       5.67941
_cell_length_c       30.1089
_cell_angle_alpha    90
_cell_angle_beta     90
_cell_angle_gamma    90

_space_group_name_H-M_alt    "P 1"
_space_group_IT_number       1

loop_
  _space_group_symop_operation_xyz
  'x, y, z'

loop_
  _atom_site_type_symbol
  _atom_site_label
  _atom_site_symmetry_multiplicity
  _atom_site_fract_x
  _atom_site_fract_y
  _atom_site_fract_z
  _atom_site_occupancy
  P   P1        1.0  0.02953  0.44095  0.89675  1.0000
  P   P2        1.0  0.02953  0.94095  0.96679  1.0000
  P   P3        1.0  0.30381  0.89239  0.96679  1.0000
  P   P4        1.0  0.30381  0.39239  0.89675  1.0000
  P   P5        1.0  0.36286  0.77428  0.89675  1.0000
  P   P6        1.0  0.36286  0.27428  0.96679  1.0000
  P   P7        1.0  0.63714  0.22572  0.96679  1.0000
  P   P8        1.0  0.69619  0.10761  0.89675  1.0000
  P   P9        1.0  0.63714  0.72572  0.89675  1.0000
  P   P10       1.0  0.69619  0.60761  0.96679  1.0000
  P   P11       1.0  0.97047  0.55905  0.96679  1.0000
  P   P12       1.0  0.97047  0.05905  0.89675  1.0000
  P   P13       1.0  0.02953  0.55905  0.10325  1.0000
  P   P14       1.0  0.69619  0.89239  0.10325  1.0000
  P   P15       1.0  0.36286  0.72572  0.03321  1.0000
  P   P16       1.0  0.63714  0.77428  0.03321  1.0000
  P   P17       1.0  0.30381  0.60761  0.10325  1.0000
  P   P18       1.0  0.36286  0.22572  0.10325  1.0000
  P   P19       1.0  0.02953  0.05905  0.03321  1.0000
  P   P20       1.0  0.30381  0.10761  0.03321  1.0000
  P   P21       1.0  0.97047  0.94095  0.10325  1.0000
  P   P22       1.0  0.69619  0.39239  0.03321  1.0000
  P   P23       1.0  0.97047  0.44095  0.03321  1.0000
  P   P24       1.0  0.63714  0.27428  0.10325  1.0000
  P   P25       1.0  0.02953  0.44095  0.16968  1.0000
  P   P26       1.0  0.02953  0.94095  0.23972  1.0000
  P   P27       1.0  0.30381  0.89239  0.23972  1.0000
  P   P28       1.0  0.30381  0.39239  0.16968  1.0000
  P   P29       1.0  0.36286  0.77428  0.16968  1.0000
  P   P30       1.0  0.36286  0.27428  0.23972  1.0000
  P   P31       1.0  0.63714  0.22572  0.23972  1.0000
  P   P32       1.0  0.69619  0.10761  0.16968  1.0000
  P   P33       1.0  0.63714  0.72572  0.16968  1.0000
  P   P34       1.0  0.69619  0.60761  0.23972  1.0000
  P   P35       1.0  0.97047  0.55905  0.23972  1.0000
  P   P36       1.0  0.97047  0.05905  0.16968  1.0000
