data_image0
_chemical_formula_structural       P24
_chemical_formula_sum              "P24"
_cell_length_a       8.05903
_cell_length_b       5.67941
_cell_length_c       30.1089
_cell_angle_alpha    90
_cell_angle_beta     90
_cell_angle_gamma    90

_space_group_name_H-M_alt    "P 1"
_space_group_IT_number       1

loop_
  _space_group_symop_operation_xyz
  'x, y, z'

loop_
  _atom_site_type_symbol
  _atom_site_label
  _atom_site_symmetry_multiplicity
  _atom_site_fract_x
  _atom_site_fract_y
  _atom_site_fract_z
  _atom_site_occupancy
  P   P1        1.0  0.02977  0.44129  0.87530  1.0000
  P   P2        1.0  0.02951  0.94122  0.94427  1.0000
  P   P3        1.0  0.30361  0.89231  0.94432  1.0000
  P   P4        1.0  0.30395  0.39200  0.87550  1.0000
  P   P5        1.0  0.36295  0.77469  0.87534  1.0000
  P   P6        1.0  0.36295  0.27505  0.94460  1.0000
  P   P7        1.0  0.63705  0.22495  0.94460  1.0000
  P   P8        1.0  0.69605  0.10800  0.87550  1.0000
  P   P9        1.0  0.63705  0.72531  0.87534  1.0000
  P   P10       1.0  0.69639  0.60769  0.94432  1.0000
  P   P11       1.0  0.97049  0.55878  0.94427  1.0000
  P   P12       1.0  0.97023  0.05871  0.87530  1.0000
  P   P13       1.0  0.02977  0.55871  0.12470  1.0000
  P   P14       1.0  0.69605  0.89200  0.12450  1.0000
  P   P15       1.0  0.36295  0.72495  0.05540  1.0000
  P   P16       1.0  0.63705  0.77505  0.05540  1.0000
  P   P17       1.0  0.30395  0.60800  0.12450  1.0000
  P   P18       1.0  0.36295  0.22531  0.12466  1.0000
  P   P19       1.0  0.02951  0.05878  0.05573  1.0000
  P   P20       1.0  0.30361  0.10769  0.05568  1.0000
  P   P21       1.0  0.97023  0.94129  0.12470  1.0000
  P   P22       1.0  0.69639  0.39231  0.05568  1.0000
  P   P23       1.0  0.97049  0.44122  0.05573  1.0000
  P   P24       1.0  0.63705  0.27469  0.12466  1.0000
