CRYSTAL
PRIMVEC
 26.86178700646158 -13.68410676780084 0.00000000000000
 -1.58010941421669 30.10504332254289 0.00000000000000
 0.00000000000000 0.00000000000000 19.31885200000000
PRIMCOORD
 546 1
 42    -0.00000026750153     1.82436563938629     0.00000000000000
 16     1.58010486620907     0.91245673359357    -1.58592600000000
 16     1.58010486620907     0.91245673359357     1.58592600000000
 16    -0.00000053508332     3.64927864320083    -1.58592600000000
 16    -0.00000053508332     3.64927864320083     1.58592600000000
 42     4.74031513379079    -0.91245580684840     0.00000000000000
 16     6.32042026750140    -1.82436471264112    -1.58592600000000
 16     6.32042026750140    -1.82436471264112     1.58592600000000
 42     3.16020973249840     1.82436610275888     0.00000000000000
 16     4.74031486620900     0.91245719696615    -1.58592600000000
 16     4.74031486620900     0.91245719696615     1.58592600000000
 42     1.58010433120600     4.56118801236614     0.00000000000000
 16     3.16020946491661     3.64927910657342    -1.58592600000000
 16     3.16020946491661     3.64927910657342     1.58592600000000
 42    -0.00000107008639     7.29800992197341     0.00000000000000
 16     1.58010406362421     6.38610101618069    -1.58592600000000
 16     1.58010406362421     6.38610101618069     1.58592600000000
 16    -0.00000133766818     9.12292292578796    -1.58592600000000
 16    -0.00000133766818     9.12292292578796     1.58592600000000
 42     9.48063053508312    -3.64927725308308     0.00000000000000
 16    11.06073566879373    -4.56118615887580    -1.58592600000000
 16    11.06073566879373    -4.56118615887580     1.58592600000000
 42     7.90052513379073    -0.91245534347581     0.00000000000000
 16     9.48063026750133    -1.82436424926853    -1.58592600000000
 16     9.48063026750133    -1.82436424926853     1.58592600000000
 42     6.32041973249833     1.82436656613146     0.00000000000000
 16     7.90052486620893     0.91245766033874    -1.58592600000000
 16     7.90052486620893     0.91245766033874     1.58592600000000
 42     4.74031433120594     4.56118847573873     0.00000000000000
 16     6.32041946491654     3.64927956994600    -1.58592600000000
 16     6.32041946491654     3.64927956994600     1.58592600000000
 42     3.16020892991354     7.29801038534600     0.00000000000000
 16     4.74031406362414     6.38610147955327    -1.58592600000000
 16     4.74031406362414     6.38610147955327     1.58592600000000
 42     1.58010352862114    10.03483229495327     0.00000000000000
 16     3.16020866233175     9.12292338916054    -1.58592600000000
 16     3.16020866233175     9.12292338916054     1.58592600000000
 42    -0.00000187267125    12.77165420456054     0.00000000000000
 16     1.58010326103935    11.85974529876782    -1.58592600000000
 16     1.58010326103935    11.85974529876782     1.58592600000000
 16    -0.00000214025304    14.59656720837509    -1.58592600000000
 16    -0.00000214025304    14.59656720837509     1.58592600000000
 42    14.22094593637545    -6.38609869931776     0.00000000000000
 16    15.80105107008605    -7.29800760511049    -1.58592600000000
 16    15.80105107008605    -7.29800760511049     1.58592600000000
 42    12.64084053508306    -3.64927678971049     0.00000000000000
 16    14.22094566879366    -4.56118569550322    -1.58592600000000
 16    14.22094566879366    -4.56118569550322     1.58592600000000
 42    11.06073513379066    -0.91245488010322     0.00000000000000
 16    12.64084026750126    -1.82436378589595    -1.58592600000000
 16    12.64084026750126    -1.82436378589595     1.58592600000000
 42     9.48062973249826     1.82436702950405     0.00000000000000
 16    11.06073486620887     0.91245812371132    -1.58592600000000
 16    11.06073486620887     0.91245812371132     1.58592600000000
 42     7.90052433120587     4.56118893911131     0.00000000000000
 16     9.48062946491647     3.64928003331859    -1.58592600000000
 16     9.48062946491647     3.64928003331859     1.58592600000000
 42     6.32041892991347     7.29801084871858     0.00000000000000
 16     7.90052406362408     6.38610194292586    -1.58592600000000
 16     7.90052406362408     6.38610194292586     1.58592600000000
 42     4.74031352862108    10.03483275832585     0.00000000000000
 16     6.32041866233168     9.12292385253313    -1.58592600000000
 16     6.32041866233168     9.12292385253313     1.58592600000000
 42     3.16020812732868    12.77165466793312     0.00000000000000
 16     4.74031326103928    11.85974576214040    -1.58592600000000
 16     4.74031326103928    11.85974576214040     1.58592600000000
 42     1.58010272603628    15.50847657754040     0.00000000000000
 16     3.16020785974689    14.59656767174767    -1.58592600000000
 16     3.16020785974689    14.59656767174767     1.58592600000000
 42    -0.00000267525611    18.24529848714766     0.00000000000000
 16     1.58010245845449    17.33338958135494    -1.58592600000000
 16     1.58010245845449    17.33338958135494     1.58592600000000
 16    -0.00000294283790    20.07021149096220    -1.58592600000000
 16    -0.00000294283790    20.07021149096220     1.58592600000000
 42    18.96126133766778    -9.12292014555245     0.00000000000000
 16    20.54136647137838   -10.03482905134517    -1.58592600000000
 16    20.54136647137838   -10.03482905134517     1.58592600000000
 42    17.38115593637538    -6.38609823594518     0.00000000000000
 16    18.96126107008599    -7.29800714173790    -1.58592600000000
 16    18.96126107008599    -7.29800714173790     1.58592600000000
 42    15.80105053508299    -3.64927632633791     0.00000000000000
 16    17.38115566879359    -4.56118523213063    -1.58592600000000
 16    17.38115566879359    -4.56118523213063     1.58592600000000
 42    14.22094513379059    -0.91245441673064     0.00000000000000
 16    15.80105026750119    -1.82436332252336    -1.58592600000000
 16    15.80105026750119    -1.82436332252336     1.58592600000000
 42    12.64083973249820     1.82436749287663     0.00000000000000
 16    14.22094486620880     0.91245858708391    -1.58592600000000
 16    14.22094486620880     0.91245858708391     1.58592600000000
 42    11.06073433120580     4.56118940248390     0.00000000000000
 16    12.64083946491640     3.64928049669118    -1.58592600000000
 16    12.64083946491640     3.64928049669118     1.58592600000000
 42     9.48062892991340     7.29801131209117     0.00000000000000
 16    11.06073406362401     6.38610240629845    -1.58592600000000
 16    11.06073406362401     6.38610240629845     1.58592600000000
 42     7.90052352862101    10.03483322169844     0.00000000000000
 16     9.48062866233161     9.12292431590572    -1.58592600000000
 16     9.48062866233161     9.12292431590572     1.58592600000000
 42     6.32041812732861    12.77165513130571     0.00000000000000
 16     7.90052326103921    11.85974622551299    -1.58592600000000
 16     7.90052326103921    11.85974622551299     1.58592600000000
 42     4.74031272603622    15.50847704091298     0.00000000000000
 16     6.32041785974682    14.59656813512026    -1.58592600000000
 16     6.32041785974682    14.59656813512026     1.58592600000000
 42     3.16020732474382    18.24529895052025     0.00000000000000
 16     4.74031245845442    17.33339004472753    -1.58592600000000
 16     4.74031245845442    17.33339004472753     1.58592600000000
 42     1.58010192345143    20.98212086012752     0.00000000000000
 16     3.16020705716203    20.07021195433479    -1.58592600000000
 16     3.16020705716203    20.07021195433479     1.58592600000000
 42    -0.00000347784097    23.71894276973478     0.00000000000000
 16     1.58010165586963    22.80703386394206    -1.58592600000000
 16     1.58010165586963    22.80703386394206     1.58592600000000
 16    -0.00000374542276    25.54385577354933    -1.58592600000000
 16    -0.00000374542276    25.54385577354933     1.58592600000000
 42    23.70157673896010   -11.85974159178713     0.00000000000000
 16    25.28168187267071   -12.77165049757986    -1.58592600000000
 16    25.28168187267071   -12.77165049757986     1.58592600000000
 42    22.12147133766771    -9.12291968217986     0.00000000000000
 16    23.70157647137831   -10.03482858797258    -1.58592600000000
 16    23.70157647137831   -10.03482858797258     1.58592600000000
 42    20.54136593637531    -6.38609777257259     0.00000000000000
 16    22.12147107008592    -7.29800667836532    -1.58592600000000
 16    22.12147107008592    -7.29800667836532     1.58592600000000
 42    18.96126053508292    -3.64927586296532     0.00000000000000
 16    20.54136566879352    -4.56118476875805    -1.58592600000000
 16    20.54136566879352    -4.56118476875805     1.58592600000000
 42    17.38115513379052    -0.91245395335805     0.00000000000000
 16    18.96126026750112    -1.82436285915078    -1.58592600000000
 16    18.96126026750112    -1.82436285915078     1.58592600000000
 42    15.80104973249813     1.82436795624922     0.00000000000000
 16    17.38115486620873     0.91245905045649    -1.58592600000000
 16    17.38115486620873     0.91245905045649     1.58592600000000
 42    14.22094433120573     4.56118986585648     0.00000000000000
 16    15.80104946491633     3.64928096006376    -1.58592600000000
 16    15.80104946491633     3.64928096006376     1.58592600000000
 42    12.64083892991333     7.29801177546375     0.00000000000000
 16    14.22094406362394     6.38610286967103    -1.58592600000000
 16    14.22094406362394     6.38610286967103     1.58592600000000
 42    11.06073352862094    10.03483368507102     0.00000000000000
 16    12.64083866233154     9.12292477927830    -1.58592600000000
 16    12.64083866233154     9.12292477927830     1.58592600000000
 42     9.48062812732854    12.77165559467830     0.00000000000000
 16    11.06073326103915    11.85974668888557    -1.58592600000000
 16    11.06073326103915    11.85974668888557     1.58592600000000
 42     7.90052272603615    15.50847750428557     0.00000000000000
 16     9.48062785974675    14.59656859849284    -1.58592600000000
 16     9.48062785974675    14.59656859849284     1.58592600000000
 42     6.32041732474375    18.24529941389283     0.00000000000000
 16     7.90052245845436    17.33339050810011    -1.58592600000000
 16     7.90052245845436    17.33339050810011     1.58592600000000
 42     4.74031192345136    20.98212132350010     0.00000000000000
 16     6.32041705716196    20.07021241770737    -1.58592600000000
 16     6.32041705716196    20.07021241770737     1.58592600000000
 42     3.16020652215896    23.71894323310737     0.00000000000000
 16     4.74031165586956    22.80703432731465    -1.58592600000000
 16     4.74031165586956    22.80703432731465     1.58592600000000
 42     1.58010112086656    26.45576514271464     0.00000000000000
 16     3.16020625457717    25.54385623692192    -1.58592600000000
 16     3.16020625457717    25.54385623692192     1.58592600000000
 42    -0.00000428042583    29.19258705232191     0.00000000000000
 16     1.58010085328477    28.28067814652919    -1.58592600000000
 16     1.58010085328477    28.28067814652919     1.58592600000000
 42    25.28168133766765    -9.12291921880728     0.00000000000000
 42    23.70157593637525    -6.38609730920001     0.00000000000000
 16    25.28168107008585    -7.29800621499273    -1.58592600000000
 16    25.28168107008585    -7.29800621499273     1.58592600000000
 42    22.12147053508285    -3.64927539959274     0.00000000000000
 16    23.70157566879346    -4.56118430538546    -1.58592600000000
 16    23.70157566879346    -4.56118430538546     1.58592600000000
 42    20.54136513379045    -0.91245348998547     0.00000000000000
 16    22.12147026750106    -1.82436239577819    -1.58592600000000
 16    22.12147026750106    -1.82436239577819     1.58592600000000
 42    18.96125973249806     1.82436841962180     0.00000000000000
 16    20.54136486620866     0.91245951382908    -1.58592600000000
 16    20.54136486620866     0.91245951382908     1.58592600000000
 42    17.38115433120566     4.56119032922907     0.00000000000000
 16    18.96125946491627     3.64928142343635    -1.58592600000000
 16    18.96125946491627     3.64928142343635     1.58592600000000
 42    15.80104892991327     7.29801223883634     0.00000000000000
 16    17.38115406362388     6.38610333304362    -1.58592600000000
 16    17.38115406362388     6.38610333304362     1.58592600000000
 42    14.22094352862087    10.03483414844361     0.00000000000000
 16    15.80104866233148     9.12292524265089    -1.58592600000000
 16    15.80104866233148     9.12292524265089     1.58592600000000
 42    12.64083812732848    12.77165605805088     0.00000000000000
 16    14.22094326103908    11.85974715225816    -1.58592600000000
 16    14.22094326103908    11.85974715225816     1.58592600000000
 42    11.06073272603608    15.50847796765815     0.00000000000000
 16    12.64083785974669    14.59656906186543    -1.58592600000000
 16    12.64083785974669    14.59656906186543     1.58592600000000
 42     9.48062732474369    18.24529987726542     0.00000000000000
 16    11.06073245845429    17.33339097147270    -1.58592600000000
 16    11.06073245845429    17.33339097147270     1.58592600000000
 42     7.90052192345129    20.98212178687269     0.00000000000000
 16     9.48062705716189    20.07021288107996    -1.58592600000000
 16     9.48062705716189    20.07021288107996     1.58592600000000
 42     6.32041652215890    23.71894369647995     0.00000000000000
 16     7.90052165586950    22.80703479068723    -1.58592600000000
 16     7.90052165586950    22.80703479068723     1.58592600000000
 42     4.74031112086650    26.45576560608723     0.00000000000000
 16     6.32041625457710    25.54385670029450    -1.58592600000000
 16     6.32041625457710    25.54385670029450     1.58592600000000
 42    25.28168053508278    -3.64927493622015     0.00000000000000
 42    23.70157513379039    -0.91245302661288     0.00000000000000
 16    25.28168026750099    -1.82436193240561    -1.58592600000000
 16    25.28168026750099    -1.82436193240561     1.58592600000000
 42    22.12146973249799     1.82436888299439     0.00000000000000
 16    23.70157486620860     0.91245997720166    -1.58592600000000
 16    23.70157486620860     0.91245997720166     1.58592600000000
 42    20.54136433120559     4.56119079260165     0.00000000000000
 16    22.12146946491620     3.64928188680893    -1.58592600000000
 16    22.12146946491620     3.64928188680893     1.58592600000000
 42    18.96125892991320     7.29801270220893     0.00000000000000
 16    20.54136406362381     6.38610379641620    -1.58592600000000
 16    20.54136406362381     6.38610379641620     1.58592600000000
 42    17.38115352862080    10.03483461181620     0.00000000000000
 16    18.96125866233141     9.12292570602347    -1.58592600000000
 16    18.96125866233141     9.12292570602347     1.58592600000000
 42    15.80104812732841    12.77165652142347     0.00000000000000
 16    17.38115326103902    11.85974761563074    -1.58592600000000
 16    17.38115326103902    11.85974761563074     1.58592600000000
 42    14.22094272603601    15.50847843103074     0.00000000000000
 16    15.80104785974662    14.59656952523801    -1.58592600000000
 16    15.80104785974662    14.59656952523801     1.58592600000000
 42    12.64083732474362    18.24530034063800     0.00000000000000
 16    14.22094245845422    17.33339143484528    -1.58592600000000
 16    14.22094245845422    17.33339143484528     1.58592600000000
 42    11.06073192345122    20.98212225024527     0.00000000000000
 16    12.64083705716183    20.07021334445255    -1.58592600000000
 16    12.64083705716183    20.07021334445255     1.58592600000000
 42     9.48062652215883    23.71894415985254     0.00000000000000
 16    11.06073165586943    22.80703525405982    -1.58592600000000
 16    11.06073165586943    22.80703525405982     1.58592600000000
 42    25.28167973249792     1.82436934636697     0.00000000000000
 42    23.70157433120552     4.56119125597424     0.00000000000000
 16    25.28167946491613     3.64928235018152    -1.58592600000000
 16    25.28167946491613     3.64928235018152     1.58592600000000
 42    22.12146892991313     7.29801316558151     0.00000000000000
 16    23.70157406362374     6.38610425978879    -1.58592600000000
 16    23.70157406362374     6.38610425978879     1.58592600000000
 42    20.54136352862073    10.03483507518878     0.00000000000000
 16    22.12146866233134     9.12292616939606    -1.58592600000000
 16    22.12146866233134     9.12292616939606     1.58592600000000
 42    18.96125812732834    12.77165698479605     0.00000000000000
 16    20.54136326103895    11.85974807900333    -1.58592600000000
 16    20.54136326103895    11.85974807900333     1.58592600000000
 42    17.38115272603594    15.50847889440332     0.00000000000000
 16    18.96125785974655    14.59656998861060    -1.58592600000000
 16    18.96125785974655    14.59656998861060     1.58592600000000
 42    15.80104732474355    18.24530080401059     0.00000000000000
 16    17.38115245845416    17.33339189821787    -1.58592600000000
 16    17.38115245845416    17.33339189821787     1.58592600000000
 42    14.22094192345116    20.98212271361786     0.00000000000000
 16    15.80104705716176    20.07021380782513    -1.58592600000000
 16    15.80104705716176    20.07021380782513     1.58592600000000
 42    25.28167892991307     7.29801362895410     0.00000000000000
 42    23.70157352862066    10.03483553856137     0.00000000000000
 16    25.28167866233127     9.12292663276864    -1.58592600000000
 16    25.28167866233127     9.12292663276864     1.58592600000000
 42    22.12146812732827    12.77165744816864     0.00000000000000
 16    23.70157326103888    11.85974854237591    -1.58592600000000
 16    23.70157326103888    11.85974854237591     1.58592600000000
 42    20.54136272603587    15.50847935777591     0.00000000000000
 16    22.12146785974648    14.59657045198318    -1.58592600000000
 16    22.12146785974648    14.59657045198318     1.58592600000000
 42    18.96125732474348    18.24530126738317     0.00000000000000
 16    20.54136245845408    17.33339236159045    -1.58592600000000
 16    20.54136245845408    17.33339236159045     1.58592600000000
 42    25.28167812732821    12.77165791154122     0.00000000000000
 42    23.70157272603580    15.50847982114849     0.00000000000000
 16    25.28167785974641    14.59657091535577    -1.58592600000000
 16    25.28167785974641    14.59657091535577     1.58592600000000
 42     1.66694316501609    -0.74203043300390     6.14700000000000
 16     3.33382902944138    -1.48351650908480     4.56107400000000
 16     3.33382902944138    -1.48351650908480     7.73292600000000
 16     1.47590299526717     1.07285554827256     4.56107400000000
 16     1.47590299526717     1.07285554827256     7.73292600000000
 42     6.66771535947357    -2.96757737509259     6.14700000000000
 16     8.33460122389885    -3.70906345117349     4.56107400000000
 16     8.33460122389885    -3.70906345117349     7.73292600000000
 42     4.80978932529936    -0.41120531773523     6.14700000000000
 16     6.47667518972465    -1.15269139381614     4.56107400000000
 16     6.47667518972465    -1.15269139381614     7.73292600000000
 42     2.95186329112515     2.14516673962212     6.14700000000000
 16     4.61874915555044     1.40368066354122     4.56107400000000
 16     4.61874915555044     1.40368066354122     7.73292600000000
 42     1.09393725695094     4.70153879697948     6.14700000000000
 16     2.76082312137623     3.96005272089858     4.56107400000000
 16     2.76082312137623     3.96005272089858     7.73292600000000
 16     0.90289708720202     6.51642477825594     4.56107400000000
 16     0.90289708720202     6.51642477825594     7.73292600000000
 42    11.66848755393104    -5.19312431718129     6.14700000000000
 16    13.33537341835633    -5.93461039326219     4.56107400000000
 16    13.33537341835633    -5.93461039326219     7.73292600000000
 42     9.81056151975683    -2.63675225982393     6.14700000000000
 16    11.47744738418212    -3.37823833590483     4.56107400000000
 16    11.47744738418212    -3.37823833590483     7.73292600000000
 42     7.95263548558262    -0.08038020246657     6.14700000000000
 16     9.61952135000791    -0.82186627854747     4.56107400000000
 16     9.61952135000791    -0.82186627854747     7.73292600000000
 42     6.09470945140842     2.47599185489078     6.14700000000000
 16     7.76159531583370     1.73450577880988     4.56107400000000
 16     7.76159531583370     1.73450577880988     7.73292600000000
 42     4.23678341723421     5.03236391224814     6.14700000000000
 16     5.90366928165950     4.29087783616724     4.56107400000000
 16     5.90366928165950     4.29087783616724     7.73292600000000
 42     2.37885738306000     7.58873596960550     6.14700000000000
 16     4.04574324748529     6.84724989352460     4.56107400000000
 16     4.04574324748529     6.84724989352460     7.73292600000000
 42     0.52093134888579    10.14510802696285     6.14700000000000
 16     2.18781721331108     9.40362195088196     4.56107400000000
 16     2.18781721331108     9.40362195088196     7.73292600000000
 16     0.32989117913687    11.95999400823932     4.56107400000000
 16     0.32989117913687    11.95999400823932     7.73292600000000
 42    16.66925974838851    -7.41867125926998     6.14700000000000
 16    18.33614561281380    -8.16015733535089     4.56107400000000
 16    18.33614561281380    -8.16015733535089     7.73292600000000
 42    14.81133371421430    -4.86229920191263     6.14700000000000
 16    16.47821957863959    -5.60378527799353     4.56107400000000
 16    16.47821957863959    -5.60378527799353     7.73292600000000
 42    12.95340768004010    -2.30592714455527     6.14700000000000
 16    14.62029354446538    -3.04741322063617     4.56107400000000
 16    14.62029354446538    -3.04741322063617     7.73292600000000
 42    11.09548164586589     0.25044491280209     6.14700000000000
 16    12.76236751029118    -0.49104116327881     4.56107400000000
 16    12.76236751029118    -0.49104116327881     7.73292600000000
 42     9.23755561169168     2.80681697015944     6.14700000000000
 16    10.90444147611697     2.06533089407854     4.56107400000000
 16    10.90444147611697     2.06533089407854     7.73292600000000
 42     7.37962957751747     5.36318902751680     6.14700000000000
 16     9.04651544194276     4.62170295143590     4.56107400000000
 16     9.04651544194276     4.62170295143590     7.73292600000000
 42     5.52170354334327     7.91956108487416     6.14700000000000
 16     7.18858940776855     7.17807500879326     4.56107400000000
 16     7.18858940776855     7.17807500879326     7.73292600000000
 42     3.66377750916906    10.47593314223151     6.14700000000000
 16     5.33066337359435     9.73444706615062     4.56107400000000
 16     5.33066337359435     9.73444706615062     7.73292600000000
 42     1.80585147499485    13.03230519958887     6.14700000000000
 16     3.47273733942014    12.29081912350798     4.56107400000000
 16     3.47273733942014    12.29081912350798     7.73292600000000
 42    -0.05207455917936    15.58867725694623     6.14700000000000
 16     1.61481130524593    14.84719118086533     4.56107400000000
 16     1.61481130524593    14.84719118086533     7.73292600000000
 16    -0.24311472892828    17.40356323822268     4.56107400000000
 16    -0.24311472892828    17.40356323822268     7.73292600000000
 42    21.67003194284598    -9.64421820135868     6.14700000000000
 16    23.33691780727127   -10.38570427743958     4.56107400000000
 16    23.33691780727127   -10.38570427743958     7.73292600000000
 42    19.81210590867178    -7.08784614400132     6.14700000000000
 16    21.47899177309706    -7.82933222008222     4.56107400000000
 16    21.47899177309706    -7.82933222008222     7.73292600000000
 42    17.95417987449757    -4.53147408664397     6.14700000000000
 16    19.62106573892286    -5.27296016272487     4.56107400000000
 16    19.62106573892286    -5.27296016272487     7.73292600000000
 42    16.09625384032336    -1.97510202928661     6.14700000000000
 16    17.76313970474865    -2.71658810536751     4.56107400000000
 16    17.76313970474865    -2.71658810536751     7.73292600000000
 42    14.23832780614915     0.58127002807075     6.14700000000000
 16    15.90521367057444    -0.16021604801015     4.56107400000000
 16    15.90521367057444    -0.16021604801015     7.73292600000000
 42    12.38040177197495     3.13764208542811     6.14700000000000
 16    14.04728763640024     2.39615600934721     4.56107400000000
 16    14.04728763640024     2.39615600934721     7.73292600000000
 42    10.52247573780074     5.69401414278546     6.14700000000000
 16    12.18936160222603     4.95252806670457     4.56107400000000
 16    12.18936160222603     4.95252806670457     7.73292600000000
 42     8.66454970362653     8.25038620014282     6.14700000000000
 16    10.33143556805182     7.50890012406192     4.56107400000000
 16    10.33143556805182     7.50890012406192     7.73292600000000
 42     6.80662366945232    10.80675825750018     6.14700000000000
 16     8.47350953387761    10.06527218141928     4.56107400000000
 16     8.47350953387761    10.06527218141928     7.73292600000000
 42     4.94869763527812    13.36313031485754     6.14700000000000
 16     6.61558349970340    12.62164423877664     4.56107400000000
 16     6.61558349970340    12.62164423877664     7.73292600000000
 42     3.09077160110391    15.91950237221489     6.14700000000000
 16     4.75765746552920    15.17801629613399     4.56107400000000
 16     4.75765746552920    15.17801629613399     7.73292600000000
 42     1.23284556692970    18.47587442957224     6.14700000000000
 16     2.89973143135499    17.73438835349134     4.56107400000000
 16     2.89973143135499    17.73438835349134     7.73292600000000
 42    -0.62508046724451    21.03224648692960     6.14700000000000
 16     1.04180539718078    20.29076041084870     4.56107400000000
 16     1.04180539718078    20.29076041084870     7.73292600000000
 16    -0.81612063699343    22.84713246820606     4.56107400000000
 16    -0.81612063699343    22.84713246820606     7.73292600000000
 42    26.67080413730346   -11.86976514344738     6.14700000000000
 42    24.81287810312925    -9.31339308609002     6.14700000000000
 16    26.47976396755454   -10.05487916217092     4.56107400000000
 16    26.47976396755454   -10.05487916217092     7.73292600000000
 42    22.95495206895504    -6.75702102873266     6.14700000000000
 16    24.62183793338033    -7.49850710481356     4.56107400000000
 16    24.62183793338033    -7.49850710481356     7.73292600000000
 42    21.09702603478084    -4.20064897137531     6.14700000000000
 16    22.76391189920612    -4.94213504745621     4.56107400000000
 16    22.76391189920612    -4.94213504745621     7.73292600000000
 42    19.23910000060663    -1.64427691401795     6.14700000000000
 16    20.90598586503192    -2.38576299009885     4.56107400000000
 16    20.90598586503192    -2.38576299009885     7.73292600000000
 42    17.38117396643242     0.91209514333941     6.14700000000000
 16    19.04805983085771     0.17060906725851     4.56107400000000
 16    19.04805983085771     0.17060906725851     7.73292600000000
 42    15.52324793225821     3.46846720069677     6.14700000000000
 16    17.19013379668350     2.72698112461587     4.56107400000000
 16    17.19013379668350     2.72698112461587     7.73292600000000
 42    13.66532189808400     6.02483925805413     6.14700000000000
 16    15.33220776250929     5.28335318197323     4.56107400000000
 16    15.33220776250929     5.28335318197323     7.73292600000000
 42    11.80739586390980     8.58121131541148     6.14700000000000
 16    13.47428172833508     7.83972523933058     4.56107400000000
 16    13.47428172833508     7.83972523933058     7.73292600000000
 42     9.94946982973559    11.13758337276884     6.14700000000000
 16    11.61635569416088    10.39609729668794     4.56107400000000
 16    11.61635569416088    10.39609729668794     7.73292600000000
 42     8.09154379556138    13.69395543012620     6.14700000000000
 16     9.75842965998667    12.95246935404530     4.56107400000000
 16     9.75842965998667    12.95246935404530     7.73292600000000
 42     6.23361776138717    16.25032748748355     6.14700000000000
 16     7.90050362581246    15.50884141140265     4.56107400000000
 16     7.90050362581246    15.50884141140265     7.73292600000000
 42     4.37569172721297    18.80669954484091     6.14700000000000
 16     6.04257759163825    18.06521346876001     4.56107400000000
 16     6.04257759163825    18.06521346876001     7.73292600000000
 42     2.51776569303876    21.36307160219826     6.14700000000000
 16     4.18465155746405    20.62158552611737     4.56107400000000
 16     4.18465155746405    20.62158552611737     7.73292600000000
 42     0.65983965886455    23.91944365955563     6.14700000000000
 16     2.32672552328984    23.17795758347473     4.56107400000000
 16     2.32672552328984    23.17795758347473     7.73292600000000
 42    -1.19808637530966    26.47581571691298     6.14700000000000
 16     0.46879948911563    25.73432964083208     4.56107400000000
 16     0.46879948911563    25.73432964083208     7.73292600000000
 16    -1.38912654505858    28.29070169818943     4.56107400000000
 16    -1.38912654505858    28.29070169818943     7.73292600000000
 42    26.09779822923831    -6.42619591346400     6.14700000000000
 42    24.23987219506410    -3.86982385610664     6.14700000000000
 16    25.90675805948939    -4.61130993218754     4.56107400000000
 16    25.90675805948939    -4.61130993218754     7.73292600000000
 42    22.38194616088989    -1.31345179874929     6.14700000000000
 16    24.04883202531518    -2.05493787483019     4.56107400000000
 16    24.04883202531518    -2.05493787483019     7.73292600000000
 42    20.52402012671568     1.24292025860807     6.14700000000000
 16    22.19090599114097     0.50143418252717     4.56107400000000
 16    22.19090599114097     0.50143418252717     7.73292600000000
 42    18.66609409254147     3.79929231596543     6.14700000000000
 16    20.33297995696676     3.05780623988453     4.56107400000000
 16    20.33297995696676     3.05780623988453     7.73292600000000
 42    16.80816805836727     6.35566437332279     6.14700000000000
 16    18.47505392279256     5.61417829724189     4.56107400000000
 16    18.47505392279256     5.61417829724189     7.73292600000000
 42    14.95024202419306     8.91203643068014     6.14700000000000
 16    16.61712788861835     8.17055035459924     4.56107400000000
 16    16.61712788861835     8.17055035459924     7.73292600000000
 42    13.09231599001885    11.46840848803750     6.14700000000000
 16    14.75920185444414    10.72692241195660     4.56107400000000
 16    14.75920185444414    10.72692241195660     7.73292600000000
 42    11.23438995584464    14.02478054539486     6.14700000000000
 16    12.90127582026993    13.28329446931396     4.56107400000000
 16    12.90127582026993    13.28329446931396     7.73292600000000
 42     9.37646392167044    16.58115260275221     6.14700000000000
 16    11.04334978609573    15.83966652667132     4.56107400000000
 16    11.04334978609573    15.83966652667132     7.73292600000000
 42     7.51853788749623    19.13752466010957     6.14700000000000
 16     9.18542375192152    18.39603858402867     4.56107400000000
 16     9.18542375192152    18.39603858402867     7.73292600000000
 42     5.66061185332202    21.69389671746692     6.14700000000000
 16     7.32749771774731    20.95241064138603     4.56107400000000
 16     7.32749771774731    20.95241064138603     7.73292600000000
 42     3.80268581914781    24.25026877482428     6.14700000000000
 16     5.46957168357310    23.50878269874338     4.56107400000000
 16     5.46957168357310    23.50878269874338     7.73292600000000
 42     1.94475978497361    26.80664083218164     6.14700000000000
 16     3.61164564939890    26.06515475610074     4.56107400000000
 16     3.61164564939890    26.06515475610074     7.73292600000000
 42    25.52479232117316    -0.98262668348062     6.14700000000000
 42    23.66686628699895     1.57374537387673     6.14700000000000
 16    25.33375215142424     0.83225929779583     4.56107400000000
 16    25.33375215142424     0.83225929779583     7.73292600000000
 42    21.80894025282474     4.13011743123409     6.14700000000000
 16    23.47582611725003     3.38863135515319     4.56107400000000
 16    23.47582611725003     3.38863135515319     7.73292600000000
 42    19.95101421865054     6.68648948859145     6.14700000000000
 16    21.61790008307582     5.94500341251055     4.56107400000000
 16    21.61790008307582     5.94500341251055     7.73292600000000
 42    18.09308818447633     9.24286154594880     6.14700000000000
 16    19.75997404890161     8.50137546986790     4.56107400000000
 16    19.75997404890161     8.50137546986790     7.73292600000000
 42    16.23516215030212    11.79923360330616     6.14700000000000
 16    17.90204801472741    11.05774752722526     4.56107400000000
 16    17.90204801472741    11.05774752722526     7.73292600000000
 42    14.37723611612791    14.35560566066352     6.14700000000000
 16    16.04412198055320    13.61411958458262     4.56107400000000
 16    16.04412198055320    13.61411958458262     7.73292600000000
 42    12.51931008195371    16.91197771802088     6.14700000000000
 16    14.18619594637899    16.17049164193998     4.56107400000000
 16    14.18619594637899    16.17049164193998     7.73292600000000
 42    10.66138404777950    19.46834977537823     6.14700000000000
 16    12.32826991220479    18.72686369929733     4.56107400000000
 16    12.32826991220479    18.72686369929733     7.73292600000000
 42     8.80345801360529    22.02472183273559     6.14700000000000
 16    10.47034387803058    21.28323575665469     4.56107400000000
 16    10.47034387803058    21.28323575665469     7.73292600000000
 42     6.94553197943108    24.58109389009295     6.14700000000000
 16     8.61241784385637    23.83960781401205     4.56107400000000
 16     8.61241784385637    23.83960781401205     7.73292600000000
 42    24.95178641310801     4.46094254650275     6.14700000000000
 42    23.09386037893380     7.01731460386011     6.14700000000000
 16    24.76074624335909     6.27582852777921     4.56107400000000
 16    24.76074624335909     6.27582852777921     7.73292600000000
 42    21.23593434475959     9.57368666121747     6.14700000000000
 16    22.90282020918488     8.83220058513657     4.56107400000000
 16    22.90282020918488     8.83220058513657     7.73292600000000
 42    19.37800831058539    12.13005871857482     6.14700000000000
 16    21.04489417501067    11.38857264249392     4.56107400000000
 16    21.04489417501067    11.38857264249392     7.73292600000000
 42    17.52008227641118    14.68643077593218     6.14700000000000
 16    19.18696814083646    13.94494469985128     4.56107400000000
 16    19.18696814083646    13.94494469985128     7.73292600000000
 42    15.66215624223697    17.24280283328954     6.14700000000000
 16    17.32904210666225    16.50131675720863     4.56107400000000
 16    17.32904210666225    16.50131675720863     7.73292600000000
 42    13.80423020806276    19.79917489064689     6.14700000000000
 16    15.47111607248805    19.05768881456599     4.56107400000000
 16    15.47111607248805    19.05768881456599     7.73292600000000
 42    11.94630417388855    22.35554694800425     6.14700000000000
 16    13.61319003831384    21.61406087192335     4.56107400000000
 16    13.61319003831384    21.61406087192335     7.73292600000000
 42    24.37878050504286     9.90451177648613     6.14700000000000
 42    22.52085447086865    12.46088383384348     6.14700000000000
 16    24.18774033529393    11.71939775776258     4.56107400000000
 16    24.18774033529393    11.71939775776258     7.73292600000000
 42    20.66292843669444    15.01725589120084     6.14700000000000
 16    22.32981430111973    14.27576981511994     4.56107400000000
 16    22.32981430111973    14.27576981511994     7.73292600000000
 42    18.80500240252023    17.57362794855820     6.14700000000000
 16    20.47188826694552    16.83214187247730     4.56107400000000
 16    20.47188826694552    16.83214187247730     7.73292600000000
 42    16.94707636834603    20.13000000591555     6.14700000000000
 16    18.61396223277131    19.38851392983465     4.56107400000000
 16    18.61396223277131    19.38851392983465     7.73292600000000
 42    23.80577459697771    15.34808100646950     6.14700000000000
 42    21.94784856280350    17.90445306382686     6.14700000000000
 16    23.61473442722879    17.16296698774596     4.56107400000000
 16    23.61473442722879    17.16296698774596     7.73292600000000
