data_image0
_chemical_formula_structural       MoS4MoS2MoS2MoS2MoS4MoS2MoS2MoS2MoS2MoS2MoS2MoS4MoS2MoS2MoS2MoS2MoS2MoS2MoS2MoS2MoS2MoS4MoS2MoS2MoS2MoS2MoS2MoS2MoS2MoS2MoS2MoS2MoS2MoS2MoS4MoS2MoS2MoS2MoS2MoS2MoS2MoS2MoS2MoS2MoS2MoS2MoS2MoS2MoS2MoS2MoS2Mo2S2MoS2MoS2MoS2MoS2MoS2MoS2MoS2MoS2MoS2MoS2MoS2MoS2Mo2S2MoS2MoS2MoS2MoS2MoS2MoS2MoS2MoS2MoS2Mo2S2MoS2MoS2MoS2MoS2MoS2MoS2Mo2S2MoS2MoS2MoS2Mo2S2MoS4MoS2MoS2MoS2MoS4MoS2MoS2MoS2MoS2MoS2MoS2MoS4MoS2MoS2MoS2MoS2MoS2MoS2MoS2MoS2MoS2MoS4MoS2MoS2MoS2MoS2MoS2MoS2MoS2MoS2MoS2MoS2MoS2MoS2MoS4Mo2S2MoS2MoS2MoS2MoS2MoS2MoS2MoS2MoS2MoS2MoS2MoS2MoS2MoS2MoS4Mo2S2MoS2MoS2MoS2MoS2MoS2MoS2MoS2MoS2MoS2MoS2MoS2MoS2Mo2S2MoS2MoS2MoS2MoS2MoS2MoS2MoS2MoS2MoS2Mo2S2MoS2MoS2MoS2MoS2MoS2MoS2Mo2S2MoS2MoS2MoS2Mo2S2
_chemical_formula_sum              "Mo182 S364"
_cell_length_a       30.1465
_cell_length_b       30.1465
_cell_length_c       20
_cell_angle_alpha    90
_cell_angle_beta     90
_cell_angle_gamma    120

_space_group_name_H-M_alt    "P 1"
_space_group_IT_number       1

loop_
  _space_group_symop_operation_xyz
  'x, y, z'

loop_
  _atom_site_type_symbol
  _atom_site_label
  _atom_site_symmetry_multiplicity
  _atom_site_fract_x
  _atom_site_fract_y
  _atom_site_fract_z
  _atom_site_occupancy
  Mo  Mo1       1.0  0.00459  0.06273  0.83579  1.0000
  S   S1        1.0  0.06311  0.05850  0.75760  1.0000
  S   S2        1.0  0.06238  0.05774  0.91417  1.0000
  S   S3        1.0  0.00907  0.12610  0.75864  1.0000
  S   S4        1.0  0.00917  0.12474  0.91522  1.0000
  Mo  Mo2       1.0  0.17903  0.04923  0.83784  1.0000
  S   S5        1.0  0.23850  0.04543  0.76130  1.0000
  S   S6        1.0  0.23621  0.04472  0.91794  1.0000
  Mo  Mo3       1.0  0.12539  0.11635  0.83685  1.0000
  S   S7        1.0  0.18450  0.11249  0.75962  1.0000
  S   S8        1.0  0.18261  0.11120  0.91623  1.0000
  Mo  Mo4       1.0  0.07165  0.18355  0.83779  1.0000
  S   S9        1.0  0.13044  0.17996  0.75958  1.0000
  S   S10       1.0  0.12931  0.17809  0.91617  1.0000
  Mo  Mo5       1.0  0.01731  0.25035  0.84024  1.0000
  S   S11       1.0  0.07596  0.24713  0.76123  1.0000
  S   S12       1.0  0.07564  0.24502  0.91785  1.0000
  S   S13       1.0  0.02073  0.31346  0.76373  1.0000
  S   S14       1.0  0.02100  0.31165  0.92041  1.0000
  Mo  Mo6       1.0  0.35441  0.03795  0.84310  1.0000
  S   S15       1.0  0.41414  0.03528  0.76610  1.0000
  S   S16       1.0  0.41258  0.03475  0.92286  1.0000
  Mo  Mo7       1.0  0.29998  0.10376  0.84105  1.0000
  S   S17       1.0  0.35967  0.10066  0.76442  1.0000
  S   S18       1.0  0.35744  0.09970  0.92117  1.0000
  Mo  Mo8       1.0  0.24605  0.17039  0.83957  1.0000
  S   S19       1.0  0.30547  0.16696  0.76275  1.0000
  S   S20       1.0  0.30316  0.16553  0.91944  1.0000
  Mo  Mo9       1.0  0.19223  0.23742  0.83947  1.0000
  S   S21       1.0  0.25132  0.23397  0.76198  1.0000
  S   S22       1.0  0.24950  0.23207  0.91864  1.0000
  Mo  Mo10      1.0  0.13800  0.30433  0.84085  1.0000
  S   S23       1.0  0.19688  0.30108  0.76256  1.0000
  S   S24       1.0  0.19581  0.29891  0.91922  1.0000
  Mo  Mo11      1.0  0.08297  0.37070  0.84296  1.0000
  S   S25       1.0  0.14182  0.36765  0.76419  1.0000
  S   S26       1.0  0.14140  0.36563  0.92088  1.0000
  Mo  Mo12      1.0  0.02704  0.43646  0.84477  1.0000
  S   S27       1.0  0.08597  0.43336  0.76598  1.0000
  S   S28       1.0  0.08592  0.43195  0.92271  1.0000
  S   S29       1.0  0.02948  0.49832  0.76692  1.0000
  S   S30       1.0  0.02954  0.49794  0.92367  1.0000
  Mo  Mo13      1.0  0.53129  0.02945  0.84542  1.0000
  S   S31       1.0  0.59021  0.02710  0.76649  1.0000
  S   S32       1.0  0.59088  0.02698  0.92326  1.0000
  Mo  Mo14      1.0  0.47599  0.09403  0.84534  1.0000
  S   S33       1.0  0.53541  0.09176  0.76734  1.0000
  S   S34       1.0  0.53493  0.09123  0.92415  1.0000
  Mo  Mo15      1.0  0.42105  0.15918  0.84424  1.0000
  S   S35       1.0  0.48062  0.15656  0.76701  1.0000
  S   S36       1.0  0.47917  0.15570  0.92385  1.0000
  Mo  Mo16      1.0  0.36661  0.22516  0.84286  1.0000
  S   S37       1.0  0.42602  0.22206  0.76589  1.0000
  S   S38       1.0  0.42412  0.22093  0.92271  1.0000
  Mo  Mo17      1.0  0.31252  0.29181  0.84211  1.0000
  S   S39       1.0  0.37161  0.28841  0.76483  1.0000
  S   S40       1.0  0.36986  0.28701  0.92158  1.0000
  Mo  Mo18      1.0  0.25832  0.35863  0.84252  1.0000
  S   S41       1.0  0.31716  0.35525  0.76463  1.0000
  S   S42       1.0  0.31596  0.35361  0.92135  1.0000
  Mo  Mo19      1.0  0.20352  0.42509  0.84380  1.0000
  S   S43       1.0  0.26232  0.42191  0.76544  1.0000
  S   S44       1.0  0.26169  0.42025  0.92217  1.0000
  Mo  Mo20      1.0  0.14787  0.49095  0.84507  1.0000
  S   S45       1.0  0.20682  0.48787  0.76662  1.0000
  S   S46       1.0  0.20649  0.48654  0.92338  1.0000
  Mo  Mo21      1.0  0.09155  0.55633  0.84540  1.0000
  S   S47       1.0  0.15067  0.55304  0.76722  1.0000
  S   S48       1.0  0.15033  0.55240  0.92399  1.0000
  Mo  Mo22      1.0  0.03515  0.62169  0.84433  1.0000
  S   S49       1.0  0.09425  0.61780  0.76661  1.0000
  S   S50       1.0  0.09378  0.61810  0.92335  1.0000
  S   S51       1.0  0.03809  0.68284  0.76463  1.0000
  S   S52       1.0  0.03765  0.68405  0.92135  1.0000
  Mo  Mo23      1.0  0.70819  0.02072  0.84211  1.0000
  S   S53       1.0  0.76603  0.01736  0.76198  1.0000
  S   S54       1.0  0.76793  0.01744  0.91864  1.0000
  Mo  Mo24      1.0  0.65316  0.08580  0.84463  1.0000
  S   S55       1.0  0.71159  0.08321  0.76483  1.0000
  S   S56       1.0  0.71300  0.08286  0.92158  1.0000
  Mo  Mo25      1.0  0.59769  0.15044  0.84616  1.0000
  S   S57       1.0  0.65664  0.14815  0.76715  1.0000
  S   S58       1.0  0.65722  0.14760  0.92400  1.0000
  Mo  Mo26      1.0  0.54223  0.21523  0.84637  1.0000
  S   S59       1.0  0.60144  0.21274  0.76818  1.0000
  S   S60       1.0  0.60111  0.21216  0.92509  1.0000
  Mo  Mo27      1.0  0.48718  0.28066  0.84559  1.0000
  S   S61       1.0  0.54633  0.27766  0.76799  1.0000
  S   S62       1.0  0.54535  0.27711  0.92491  1.0000
  Mo  Mo28      1.0  0.43264  0.34684  0.84463  1.0000
  S   S63       1.0  0.49151  0.34336  0.76715  1.0000
  S   S64       1.0  0.49038  0.34278  0.92400  1.0000
  Mo  Mo29      1.0  0.37831  0.41346  0.84433  1.0000
  S   S65       1.0  0.43689  0.40979  0.76649  1.0000
  S   S66       1.0  0.43610  0.40912  0.92326  1.0000
  Mo  Mo30      1.0  0.32371  0.47995  0.84490  1.0000
  S   S67       1.0  0.38220  0.47645  0.76661  1.0000
  S   S68       1.0  0.38190  0.47568  0.92335  1.0000
  Mo  Mo31      1.0  0.26844  0.54587  0.84574  1.0000
  S   S69       1.0  0.32711  0.54264  0.76730  1.0000
  S   S70       1.0  0.32705  0.54193  0.92408  1.0000
  Mo  Mo32      1.0  0.21248  0.61120  0.84595  1.0000
  S   S71       1.0  0.27150  0.60806  0.76778  1.0000
  S   S72       1.0  0.27128  0.60764  0.92458  1.0000
  Mo  Mo33      1.0  0.15623  0.67629  0.84490  1.0000
  S   S73       1.0  0.21553  0.67289  0.76730  1.0000
  S   S74       1.0  0.21488  0.67295  0.92408  1.0000
  Mo  Mo34      1.0  0.10031  0.74168  0.84252  1.0000
  S   S75       1.0  0.15959  0.73768  0.76544  1.0000
  S   S76       1.0  0.15856  0.73831  0.92217  1.0000
  Mo  Mo35      1.0  0.04519  0.80778  0.83947  1.0000
  S   S77       1.0  0.10420  0.80312  0.76256  1.0000
  S   S78       1.0  0.10310  0.80419  0.91922  1.0000
  S   S79       1.0  0.04951  0.86956  0.75958  1.0000
  S   S80       1.0  0.04878  0.87069  0.91617  1.0000
  Mo  Mo36      1.0  0.88366  0.00905  0.83685  1.0000
  S   S81       1.0  0.94151  0.00461  0.75760  1.0000
  S   S82       1.0  0.94226  0.00464  0.91417  1.0000
  Mo  Mo37      1.0  0.82962  0.07567  0.83957  1.0000
  S   S83       1.0  0.88751  0.07201  0.75962  1.0000
  S   S84       1.0  0.88880  0.07141  0.91623  1.0000
  Mo  Mo38      1.0  0.77484  0.14146  0.84286  1.0000
  S   S85       1.0  0.83304  0.13851  0.76275  1.0000
  S   S86       1.0  0.83447  0.13763  0.91944  1.0000
  Mo  Mo39      1.0  0.71934  0.20653  0.84559  1.0000
  S   S87       1.0  0.77794  0.20396  0.76589  1.0000
  S   S88       1.0  0.77907  0.20319  0.92271  1.0000
  Mo  Mo40      1.0  0.66350  0.27135  0.84698  1.0000
  S   S89       1.0  0.72234  0.26867  0.76799  1.0000
  S   S90       1.0  0.72289  0.26825  0.92491  1.0000
  Mo  Mo41      1.0  0.60785  0.33650  0.84698  1.0000
  S   S91       1.0  0.66667  0.33334  0.76870  1.0000
  S   S92       1.0  0.66667  0.33334  0.92565  1.0000
  Mo  Mo42      1.0  0.55275  0.40231  0.84616  1.0000
  S   S93       1.0  0.61130  0.39857  0.76818  1.0000
  S   S94       1.0  0.61106  0.39890  0.92509  1.0000
  Mo  Mo43      1.0  0.49815  0.46871  0.84542  1.0000
  S   S95       1.0  0.55635  0.46459  0.76734  1.0000
  S   S96       1.0  0.55630  0.46508  0.92415  1.0000
  Mo  Mo44      1.0  0.44367  0.53522  0.84540  1.0000
  S   S97       1.0  0.50168  0.53116  0.76692  1.0000
  S   S98       1.0  0.50206  0.53160  0.92367  1.0000
  Mo  Mo45      1.0  0.38881  0.60129  0.84595  1.0000
  S   S99       1.0  0.44697  0.59763  0.76722  1.0000
  S   S100      1.0  0.44760  0.59793  0.92399  1.0000
  Mo  Mo46      1.0  0.33333  0.66667  0.84633  1.0000
  S   S101      1.0  0.39194  0.66344  0.76778  1.0000
  S   S102      1.0  0.39236  0.66364  0.92458  1.0000
  Mo  Mo47      1.0  0.27743  0.73156  0.84574  1.0000
  S   S103      1.0  0.33657  0.72851  0.76778  1.0000
  S   S104      1.0  0.33636  0.72873  0.92458  1.0000
  Mo  Mo48      1.0  0.22157  0.79648  0.84380  1.0000
  S   S105      1.0  0.28105  0.79318  0.76662  1.0000
  S   S106      1.0  0.28004  0.79351  0.92338  1.0000
  Mo  Mo49      1.0  0.16632  0.86200  0.84085  1.0000
  S   S107      1.0  0.22583  0.85818  0.76419  1.0000
  S   S108      1.0  0.22423  0.85860  0.92088  1.0000
  Mo  Mo50      1.0  0.11190  0.92835  0.83779  1.0000
  S   S109      1.0  0.17117  0.92405  0.76123  1.0000
  S   S110      1.0  0.16938  0.92436  0.91785  1.0000
  Mo  Mo51      1.0  0.05813  0.99541  0.83579  1.0000
  S   S111      1.0  0.11702  0.99093  0.75864  1.0000
  S   S112      1.0  0.11557  0.99084  0.91522  1.0000
  Mo  Mo52      1.0  0.95077  0.12981  0.83784  1.0000
  Mo  Mo53      1.0  0.89624  0.19622  0.84105  1.0000
  S   S113      1.0  0.95457  0.19307  0.76130  1.0000
  S   S114      1.0  0.95528  0.19149  0.91794  1.0000
  Mo  Mo54      1.0  0.84083  0.26187  0.84424  1.0000
  S   S115      1.0  0.89934  0.25901  0.76442  1.0000
  S   S116      1.0  0.90030  0.25774  0.92117  1.0000
  Mo  Mo55      1.0  0.78477  0.32700  0.84637  1.0000
  S   S117      1.0  0.84344  0.32405  0.76701  1.0000
  S   S118      1.0  0.84430  0.32347  0.92385  1.0000
  Mo  Mo56      1.0  0.72865  0.39215  0.84698  1.0000
  S   S119      1.0  0.78726  0.38870  0.76818  1.0000
  S   S120      1.0  0.78784  0.38895  0.92509  1.0000
  Mo  Mo57      1.0  0.67300  0.45777  0.84637  1.0000
  S   S121      1.0  0.73133  0.45367  0.76799  1.0000
  S   S122      1.0  0.73175  0.45465  0.92491  1.0000
  Mo  Mo58      1.0  0.61803  0.52401  0.84534  1.0000
  S   S123      1.0  0.67595  0.51939  0.76701  1.0000
  S   S124      1.0  0.67654  0.52084  0.92385  1.0000
  Mo  Mo59      1.0  0.56355  0.59058  0.84477  1.0000
  S   S125      1.0  0.62114  0.58587  0.76610  1.0000
  S   S126      1.0  0.62217  0.58742  0.92286  1.0000
  Mo  Mo60      1.0  0.50905  0.65692  0.84507  1.0000
  S   S127      1.0  0.56665  0.65262  0.76598  1.0000
  S   S128      1.0  0.56805  0.65397  0.92271  1.0000
  Mo  Mo61      1.0  0.45413  0.72258  0.84574  1.0000
  S   S129      1.0  0.51213  0.71895  0.76662  1.0000
  S   S130      1.0  0.51346  0.71996  0.92338  1.0000
  Mo  Mo62      1.0  0.39872  0.78752  0.84595  1.0000
  S   S131      1.0  0.45736  0.78447  0.76730  1.0000
  S   S132      1.0  0.45807  0.78513  0.92408  1.0000
  Mo  Mo63      1.0  0.34308  0.85213  0.84507  1.0000
  S   S133      1.0  0.40237  0.84934  0.76722  1.0000
  S   S134      1.0  0.40207  0.84967  0.92399  1.0000
  Mo  Mo64      1.0  0.28773  0.91704  0.84296  1.0000
  S   S135      1.0  0.34738  0.91403  0.76598  1.0000
  S   S136      1.0  0.34603  0.91408  0.92271  1.0000
  Mo  Mo65      1.0  0.23304  0.98270  0.84024  1.0000
  S   S137      1.0  0.29273  0.97927  0.76373  1.0000
  S   S138      1.0  0.29065  0.97900  0.92041  1.0000
  Mo  Mo66      1.0  0.96205  0.31646  0.84310  1.0000
  Mo  Mo67      1.0  0.90598  0.38197  0.84534  1.0000
  S   S139      1.0  0.96472  0.37886  0.76610  1.0000
  S   S140      1.0  0.96526  0.37783  0.92286  1.0000
  Mo  Mo68      1.0  0.84956  0.44725  0.84616  1.0000
  S   S141      1.0  0.90824  0.44365  0.76734  1.0000
  S   S142      1.0  0.90877  0.44370  0.92415  1.0000
  Mo  Mo69      1.0  0.79347  0.51282  0.84559  1.0000
  S   S143      1.0  0.85185  0.50850  0.76715  1.0000
  S   S144      1.0  0.85240  0.50962  0.92400  1.0000
  Mo  Mo70      1.0  0.73813  0.57896  0.84424  1.0000
  S   S145      1.0  0.79604  0.57399  0.76589  1.0000
  S   S146      1.0  0.79681  0.57588  0.92271  1.0000
  Mo  Mo71      1.0  0.68354  0.64559  0.84310  1.0000
  S   S147      1.0  0.74099  0.64033  0.76442  1.0000
  S   S148      1.0  0.74226  0.64256  0.92117  1.0000
  Mo  Mo72      1.0  0.62930  0.71227  0.84296  1.0000
  S   S149      1.0  0.68654  0.70727  0.76373  1.0000
  S   S150      1.0  0.68835  0.70935  0.92041  1.0000
  Mo  Mo73      1.0  0.57491  0.77843  0.84380  1.0000
  S   S151      1.0  0.63235  0.77417  0.76419  1.0000
  S   S152      1.0  0.63438  0.77578  0.92088  1.0000
  Mo  Mo74      1.0  0.52006  0.84377  0.84490  1.0000
  S   S153      1.0  0.57809  0.84041  0.76544  1.0000
  S   S154      1.0  0.57975  0.84144  0.92217  1.0000
  Mo  Mo75      1.0  0.46478  0.90845  0.84540  1.0000
  S   S155      1.0  0.52356  0.90575  0.76661  1.0000
  S   S156      1.0  0.52433  0.90622  0.92335  1.0000
  Mo  Mo76      1.0  0.40942  0.97297  0.84477  1.0000
  S   S157      1.0  0.46884  0.97052  0.76692  1.0000
  S   S158      1.0  0.46840  0.97046  0.92367  1.0000
  Mo  Mo77      1.0  0.97056  0.50185  0.84542  1.0000
  Mo  Mo78      1.0  0.91420  0.56736  0.84463  1.0000
  S   S159      1.0  0.97291  0.56311  0.76649  1.0000
  S   S160      1.0  0.97302  0.56390  0.92326  1.0000
  Mo  Mo79      1.0  0.85854  0.63339  0.84286  1.0000
  S   S161      1.0  0.91680  0.62839  0.76483  1.0000
  S   S162      1.0  0.91714  0.63014  0.92158  1.0000
  Mo  Mo80      1.0  0.80378  0.70002  0.84105  1.0000
  S   S163      1.0  0.86149  0.69453  0.76275  1.0000
  S   S164      1.0  0.86237  0.69684  0.91944  1.0000
  Mo  Mo81      1.0  0.74965  0.76696  0.84024  1.0000
  S   S165      1.0  0.80694  0.76151  0.76130  1.0000
  S   S166      1.0  0.80851  0.76379  0.91794  1.0000
  Mo  Mo82      1.0  0.69567  0.83368  0.84085  1.0000
  S   S167      1.0  0.75287  0.82883  0.76123  1.0000
  S   S168      1.0  0.75498  0.83063  0.91785  1.0000
  Mo  Mo83      1.0  0.64138  0.89970  0.84252  1.0000
  S   S169      1.0  0.69892  0.89580  0.76256  1.0000
  S   S170      1.0  0.70109  0.89690  0.91922  1.0000
  Mo  Mo84      1.0  0.58654  0.96486  0.84433  1.0000
  S   S171      1.0  0.64475  0.96191  0.76463  1.0000
  S   S172      1.0  0.64639  0.96235  0.92135  1.0000
  Mo  Mo85      1.0  0.97928  0.68748  0.84211  1.0000
  Mo  Mo86      1.0  0.92433  0.75395  0.83957  1.0000
  S   S173      1.0  0.98265  0.74868  0.76198  1.0000
  S   S174      1.0  0.98257  0.75050  0.91864  1.0000
  Mo  Mo87      1.0  0.87020  0.82097  0.83784  1.0000
  S   S175      1.0  0.92799  0.81550  0.75962  1.0000
  S   S176      1.0  0.92859  0.81739  0.91623  1.0000
  Mo  Mo88      1.0  0.81645  0.88810  0.83779  1.0000
  S   S177      1.0  0.87390  0.88298  0.75864  1.0000
  S   S178      1.0  0.87526  0.88443  0.91522  1.0000
  Mo  Mo89      1.0  0.76258  0.95481  0.83947  1.0000
  S   S179      1.0  0.82004  0.95049  0.75958  1.0000
  S   S180      1.0  0.82191  0.95123  0.91617  1.0000
  Mo  Mo90      1.0  0.99095  0.87461  0.83685  1.0000
  Mo  Mo91      1.0  0.93727  0.94187  0.83579  1.0000
  S   S181      1.0  0.99539  0.93689  0.75760  1.0000
  S   S182      1.0  0.99536  0.93762  0.91417  1.0000
  Mo  Mo92      1.0  0.06273  0.00460  0.16421  1.0000
  S   S183      1.0  0.12474  0.00917  0.08478  1.0000
  S   S184      1.0  0.12610  0.00907  0.24136  1.0000
  S   S185      1.0  0.05774  0.06238  0.08583  1.0000
  S   S186      1.0  0.05849  0.06311  0.24240  1.0000
  Mo  Mo93      1.0  0.25035  0.01731  0.15976  1.0000
  S   S187      1.0  0.31165  0.02100  0.07959  1.0000
  S   S188      1.0  0.31346  0.02073  0.23627  1.0000
  Mo  Mo94      1.0  0.18355  0.07165  0.16221  1.0000
  S   S189      1.0  0.24502  0.07564  0.08215  1.0000
  S   S190      1.0  0.24713  0.07596  0.23877  1.0000
  Mo  Mo95      1.0  0.11634  0.12539  0.16315  1.0000
  S   S191      1.0  0.17809  0.12932  0.08383  1.0000
  S   S192      1.0  0.17996  0.13045  0.24042  1.0000
  Mo  Mo96      1.0  0.04923  0.17903  0.16216  1.0000
  S   S193      1.0  0.11120  0.18261  0.08377  1.0000
  S   S194      1.0  0.11249  0.18451  0.24038  1.0000
  S   S195      1.0  0.04472  0.23621  0.08206  1.0000
  S   S196      1.0  0.04543  0.23850  0.23870  1.0000
  Mo  Mo97      1.0  0.43645  0.02704  0.15523  1.0000
  S   S197      1.0  0.49794  0.02954  0.07633  1.0000
  S   S198      1.0  0.49832  0.02949  0.23308  1.0000
  Mo  Mo98      1.0  0.37070  0.08297  0.15704  1.0000
  S   S199      1.0  0.43195  0.08592  0.07729  1.0000
  S   S200      1.0  0.43335  0.08597  0.23402  1.0000
  Mo  Mo99      1.0  0.30433  0.13801  0.15915  1.0000
  S   S201      1.0  0.36562  0.14140  0.07912  1.0000
  S   S202      1.0  0.36765  0.14182  0.23581  1.0000
  Mo  Mo100     1.0  0.23742  0.19223  0.16052  1.0000
  S   S203      1.0  0.29891  0.19581  0.08078  1.0000
  S   S204      1.0  0.30108  0.19688  0.23744  1.0000
  Mo  Mo101     1.0  0.17038  0.24605  0.16043  1.0000
  S   S205      1.0  0.23207  0.24951  0.08136  1.0000
  S   S206      1.0  0.23397  0.25132  0.23802  1.0000
  Mo  Mo102     1.0  0.10376  0.29999  0.15895  1.0000
  S   S207      1.0  0.16553  0.30316  0.08056  1.0000
  S   S208      1.0  0.16696  0.30547  0.23725  1.0000
  Mo  Mo103     1.0  0.03795  0.35441  0.15690  1.0000
  S   S209      1.0  0.09970  0.35744  0.07883  1.0000
  S   S210      1.0  0.10066  0.35967  0.23558  1.0000
  S   S211      1.0  0.03474  0.41258  0.07714  1.0000
  S   S212      1.0  0.03528  0.41414  0.23390  1.0000
  Mo  Mo104     1.0  0.62169  0.03515  0.15567  1.0000
  S   S213      1.0  0.68404  0.03765  0.07865  1.0000
  S   S214      1.0  0.68284  0.03809  0.23537  1.0000
  Mo  Mo105     1.0  0.55633  0.09155  0.15460  1.0000
  S   S215      1.0  0.61810  0.09378  0.07665  1.0000
  S   S216      1.0  0.61780  0.09425  0.23340  1.0000
  Mo  Mo106     1.0  0.49095  0.14787  0.15493  1.0000
  S   S217      1.0  0.55240  0.15033  0.07601  1.0000
  S   S218      1.0  0.55303  0.15067  0.23278  1.0000
  Mo  Mo107     1.0  0.42509  0.20352  0.15620  1.0000
  S   S219      1.0  0.48654  0.20649  0.07662  1.0000
  S   S220      1.0  0.48787  0.20682  0.23338  1.0000
  Mo  Mo108     1.0  0.35862  0.25832  0.15748  1.0000
  S   S221      1.0  0.42025  0.26169  0.07783  1.0000
  S   S222      1.0  0.42191  0.26232  0.23456  1.0000
  Mo  Mo109     1.0  0.29181  0.31252  0.15789  1.0000
  S   S223      1.0  0.35361  0.31596  0.07865  1.0000
  S   S224      1.0  0.35525  0.31716  0.23537  1.0000
  Mo  Mo110     1.0  0.22516  0.36662  0.15714  1.0000
  S   S225      1.0  0.28700  0.36986  0.07842  1.0000
  S   S226      1.0  0.28841  0.37161  0.23517  1.0000
  Mo  Mo111     1.0  0.15917  0.42105  0.15576  1.0000
  S   S227      1.0  0.22093  0.42412  0.07729  1.0000
  S   S228      1.0  0.22206  0.42602  0.23411  1.0000
  Mo  Mo112     1.0  0.09402  0.47599  0.15466  1.0000
  S   S229      1.0  0.15570  0.47917  0.07615  1.0000
  S   S230      1.0  0.15656  0.48062  0.23299  1.0000
  Mo  Mo113     1.0  0.02944  0.53129  0.15458  1.0000
  S   S231      1.0  0.09123  0.53493  0.07585  1.0000
  S   S232      1.0  0.09176  0.53541  0.23266  1.0000
  S   S233      1.0  0.02698  0.59088  0.07674  1.0000
  S   S234      1.0  0.02710  0.59021  0.23351  1.0000
  Mo  Mo114     1.0  0.80777  0.04519  0.16052  1.0000
  S   S235      1.0  0.87069  0.04878  0.08383  1.0000
  S   S236      1.0  0.86956  0.04951  0.24042  1.0000
  Mo  Mo115     1.0  0.74168  0.10031  0.15748  1.0000
  S   S237      1.0  0.80419  0.10310  0.08078  1.0000
  S   S238      1.0  0.80312  0.10420  0.23744  1.0000
  Mo  Mo116     1.0  0.67629  0.15623  0.15510  1.0000
  S   S239      1.0  0.73831  0.15856  0.07783  1.0000
  S   S240      1.0  0.73768  0.15959  0.23456  1.0000
  Mo  Mo117     1.0  0.61119  0.21248  0.15405  1.0000
  S   S241      1.0  0.67295  0.21488  0.07592  1.0000
  S   S242      1.0  0.67289  0.21553  0.23270  1.0000
  Mo  Mo118     1.0  0.54587  0.26845  0.15426  1.0000
  S   S243      1.0  0.60764  0.27128  0.07542  1.0000
  S   S244      1.0  0.60806  0.27150  0.23222  1.0000
  Mo  Mo119     1.0  0.47994  0.32372  0.15510  1.0000
  S   S245      1.0  0.54193  0.32705  0.07592  1.0000
  S   S246      1.0  0.54264  0.32711  0.23270  1.0000
  Mo  Mo120     1.0  0.41346  0.37832  0.15567  1.0000
  S   S247      1.0  0.47568  0.38190  0.07665  1.0000
  S   S248      1.0  0.47644  0.38220  0.23340  1.0000
  Mo  Mo121     1.0  0.34684  0.43264  0.15537  1.0000
  S   S249      1.0  0.40912  0.43610  0.07674  1.0000
  S   S250      1.0  0.40979  0.43689  0.23351  1.0000
  Mo  Mo122     1.0  0.28066  0.48719  0.15441  1.0000
  S   S251      1.0  0.34278  0.49038  0.07600  1.0000
  S   S252      1.0  0.34336  0.49151  0.23285  1.0000
  Mo  Mo123     1.0  0.21523  0.54223  0.15363  1.0000
  S   S253      1.0  0.27711  0.54536  0.07509  1.0000
  S   S254      1.0  0.27766  0.54633  0.23201  1.0000
  Mo  Mo124     1.0  0.15044  0.59769  0.15384  1.0000
  S   S255      1.0  0.21216  0.60111  0.07491  1.0000
  S   S256      1.0  0.21274  0.60144  0.23182  1.0000
  Mo  Mo125     1.0  0.08580  0.65316  0.15537  1.0000
  S   S257      1.0  0.14760  0.65722  0.07600  1.0000
  S   S258      1.0  0.14815  0.65665  0.23285  1.0000
  Mo  Mo126     1.0  0.02072  0.70820  0.15789  1.0000
  S   S259      1.0  0.08286  0.71300  0.07842  1.0000
  S   S260      1.0  0.08320  0.71159  0.23517  1.0000
  S   S261      1.0  0.01743  0.76793  0.08136  1.0000
  S   S262      1.0  0.01735  0.76604  0.23802  1.0000
  Mo  Mo127     1.0  0.99541  0.05814  0.16421  1.0000
  Mo  Mo128     1.0  0.92835  0.11190  0.16221  1.0000
  S   S263      1.0  0.99083  0.11557  0.08478  1.0000
  S   S264      1.0  0.99093  0.11702  0.24136  1.0000
  Mo  Mo129     1.0  0.86200  0.16633  0.15915  1.0000
  S   S265      1.0  0.92436  0.16938  0.08215  1.0000
  S   S266      1.0  0.92404  0.17118  0.23877  1.0000
  Mo  Mo130     1.0  0.79648  0.22157  0.15620  1.0000
  S   S267      1.0  0.85860  0.22423  0.07912  1.0000
  S   S268      1.0  0.85818  0.22583  0.23581  1.0000
  Mo  Mo131     1.0  0.73156  0.27743  0.15426  1.0000
  S   S269      1.0  0.79351  0.28005  0.07662  1.0000
  S   S270      1.0  0.79318  0.28105  0.23338  1.0000
  Mo  Mo132     1.0  0.66667  0.33333  0.15367  1.0000
  S   S271      1.0  0.72872  0.33636  0.07542  1.0000
  S   S272      1.0  0.72850  0.33657  0.23222  1.0000
  Mo  Mo133     1.0  0.60128  0.38881  0.15405  1.0000
  S   S273      1.0  0.66364  0.39236  0.07542  1.0000
  S   S274      1.0  0.66344  0.39194  0.23222  1.0000
  Mo  Mo134     1.0  0.53522  0.44367  0.15460  1.0000
  S   S275      1.0  0.59793  0.44760  0.07601  1.0000
  S   S276      1.0  0.59763  0.44697  0.23278  1.0000
  Mo  Mo135     1.0  0.46871  0.49815  0.15458  1.0000
  S   S277      1.0  0.53160  0.50206  0.07633  1.0000
  S   S278      1.0  0.53116  0.50168  0.23308  1.0000
  Mo  Mo136     1.0  0.40231  0.55275  0.15384  1.0000
  S   S279      1.0  0.46507  0.55630  0.07585  1.0000
  S   S280      1.0  0.46459  0.55635  0.23266  1.0000
  Mo  Mo137     1.0  0.33650  0.60785  0.15302  1.0000
  S   S281      1.0  0.39890  0.61106  0.07491  1.0000
  S   S282      1.0  0.39856  0.61130  0.23182  1.0000
  Mo  Mo138     1.0  0.27135  0.66350  0.15302  1.0000
  S   S283      1.0  0.33333  0.66667  0.07435  1.0000
  S   S284      1.0  0.33333  0.66667  0.23130  1.0000
  Mo  Mo139     1.0  0.20653  0.71935  0.15441  1.0000
  S   S285      1.0  0.26825  0.72290  0.07509  1.0000
  S   S286      1.0  0.26867  0.72234  0.23201  1.0000
  Mo  Mo140     1.0  0.14146  0.77484  0.15714  1.0000
  S   S287      1.0  0.20319  0.77907  0.07729  1.0000
  S   S288      1.0  0.20396  0.77795  0.23411  1.0000
  Mo  Mo141     1.0  0.07567  0.82962  0.16043  1.0000
  S   S289      1.0  0.13763  0.83447  0.08056  1.0000
  S   S290      1.0  0.13851  0.83304  0.23725  1.0000
  Mo  Mo142     1.0  0.00905  0.88366  0.16315  1.0000
  S   S291      1.0  0.07141  0.88880  0.08377  1.0000
  S   S292      1.0  0.07201  0.88751  0.24038  1.0000
  S   S293      1.0  0.00464  0.94226  0.08583  1.0000
  S   S294      1.0  0.00461  0.94151  0.24240  1.0000
  Mo  Mo143     1.0  0.98269  0.23304  0.15976  1.0000
  Mo  Mo144     1.0  0.91703  0.28774  0.15704  1.0000
  S   S295      1.0  0.97900  0.29065  0.07959  1.0000
  S   S296      1.0  0.97927  0.29273  0.23627  1.0000
  Mo  Mo145     1.0  0.85213  0.34308  0.15493  1.0000
  S   S297      1.0  0.91408  0.34604  0.07729  1.0000
  S   S298      1.0  0.91403  0.34739  0.23402  1.0000
  Mo  Mo146     1.0  0.78752  0.39872  0.15405  1.0000
  S   S299      1.0  0.84967  0.40207  0.07601  1.0000
  S   S300      1.0  0.84933  0.40237  0.23278  1.0000
  Mo  Mo147     1.0  0.72257  0.45413  0.15426  1.0000
  S   S301      1.0  0.78512  0.45807  0.07592  1.0000
  S   S302      1.0  0.78447  0.45736  0.23270  1.0000
  Mo  Mo148     1.0  0.65692  0.50905  0.15493  1.0000
  S   S303      1.0  0.71996  0.51347  0.07662  1.0000
  S   S304      1.0  0.71895  0.51213  0.23338  1.0000
  Mo  Mo149     1.0  0.59058  0.56355  0.15523  1.0000
  S   S305      1.0  0.65397  0.56805  0.07729  1.0000
  S   S306      1.0  0.65262  0.56665  0.23402  1.0000
  Mo  Mo150     1.0  0.52401  0.61803  0.15466  1.0000
  S   S307      1.0  0.58742  0.62217  0.07714  1.0000
  S   S308      1.0  0.58586  0.62114  0.23390  1.0000
  Mo  Mo151     1.0  0.45777  0.67300  0.15363  1.0000
  S   S309      1.0  0.52083  0.67654  0.07615  1.0000
  S   S310      1.0  0.51938  0.67595  0.23299  1.0000
  Mo  Mo152     1.0  0.39215  0.72865  0.15302  1.0000
  S   S311      1.0  0.45465  0.73175  0.07509  1.0000
  S   S312      1.0  0.45367  0.73133  0.23201  1.0000
  Mo  Mo153     1.0  0.32700  0.78477  0.15363  1.0000
  S   S313      1.0  0.38894  0.78784  0.07491  1.0000
  S   S314      1.0  0.38870  0.78727  0.23182  1.0000
  Mo  Mo154     1.0  0.26187  0.84083  0.15576  1.0000
  S   S315      1.0  0.32346  0.84430  0.07615  1.0000
  S   S316      1.0  0.32405  0.84344  0.23299  1.0000
  Mo  Mo155     1.0  0.19622  0.89624  0.15895  1.0000
  S   S317      1.0  0.25774  0.90030  0.07883  1.0000
  S   S318      1.0  0.25901  0.89934  0.23558  1.0000
  Mo  Mo156     1.0  0.12981  0.95078  0.16216  1.0000
  S   S319      1.0  0.19149  0.95528  0.08206  1.0000
  S   S320      1.0  0.19306  0.95457  0.23870  1.0000
  Mo  Mo157     1.0  0.97296  0.40942  0.15523  1.0000
  Mo  Mo158     1.0  0.90845  0.46478  0.15460  1.0000
  S   S321      1.0  0.97046  0.46840  0.07633  1.0000
  S   S322      1.0  0.97052  0.46884  0.23308  1.0000
  Mo  Mo159     1.0  0.84377  0.52006  0.15510  1.0000
  S   S323      1.0  0.90622  0.52433  0.07665  1.0000
  S   S324      1.0  0.90575  0.52356  0.23340  1.0000
  Mo  Mo160     1.0  0.77843  0.57491  0.15620  1.0000
  S   S325      1.0  0.84144  0.57975  0.07783  1.0000
  S   S326      1.0  0.84041  0.57809  0.23456  1.0000
  Mo  Mo161     1.0  0.71227  0.62930  0.15704  1.0000
  S   S327      1.0  0.77577  0.63438  0.07912  1.0000
  S   S328      1.0  0.77417  0.63235  0.23581  1.0000
  Mo  Mo162     1.0  0.64559  0.68354  0.15690  1.0000
  S   S329      1.0  0.70935  0.68835  0.07959  1.0000
  S   S330      1.0  0.70727  0.68654  0.23627  1.0000
  Mo  Mo163     1.0  0.57895  0.73813  0.15576  1.0000
  S   S331      1.0  0.64256  0.74226  0.07883  1.0000
  S   S332      1.0  0.64033  0.74100  0.23558  1.0000
  Mo  Mo164     1.0  0.51282  0.79347  0.15441  1.0000
  S   S333      1.0  0.57588  0.79681  0.07729  1.0000
  S   S334      1.0  0.57398  0.79604  0.23411  1.0000
  Mo  Mo165     1.0  0.44725  0.84956  0.15384  1.0000
  S   S335      1.0  0.50962  0.85240  0.07600  1.0000
  S   S336      1.0  0.50849  0.85185  0.23285  1.0000
  Mo  Mo166     1.0  0.38197  0.90598  0.15466  1.0000
  S   S337      1.0  0.44370  0.90878  0.07585  1.0000
  S   S338      1.0  0.44365  0.90824  0.23266  1.0000
  Mo  Mo167     1.0  0.31646  0.96205  0.15690  1.0000
  S   S339      1.0  0.37783  0.96526  0.07714  1.0000
  S   S340      1.0  0.37886  0.96473  0.23390  1.0000
  Mo  Mo168     1.0  0.96486  0.58654  0.15567  1.0000
  Mo  Mo169     1.0  0.89970  0.64138  0.15748  1.0000
  S   S341      1.0  0.96235  0.64639  0.07865  1.0000
  S   S342      1.0  0.96191  0.64476  0.23537  1.0000
  Mo  Mo170     1.0  0.83368  0.69567  0.15915  1.0000
  S   S343      1.0  0.89690  0.70109  0.08078  1.0000
  S   S344      1.0  0.89580  0.69892  0.23744  1.0000
  Mo  Mo171     1.0  0.76696  0.74965  0.15976  1.0000
  S   S345      1.0  0.83062  0.75499  0.08215  1.0000
  S   S346      1.0  0.82883  0.75287  0.23877  1.0000
  Mo  Mo172     1.0  0.70002  0.80378  0.15895  1.0000
  S   S347      1.0  0.76379  0.80852  0.08206  1.0000
  S   S348      1.0  0.76150  0.80694  0.23870  1.0000
  Mo  Mo173     1.0  0.63339  0.85854  0.15714  1.0000
  S   S349      1.0  0.69684  0.86237  0.08056  1.0000
  S   S350      1.0  0.69453  0.86149  0.23725  1.0000
  Mo  Mo174     1.0  0.56736  0.91420  0.15537  1.0000
  S   S351      1.0  0.63014  0.91715  0.07842  1.0000
  S   S352      1.0  0.62839  0.91680  0.23517  1.0000
  Mo  Mo175     1.0  0.50185  0.97056  0.15458  1.0000
  S   S353      1.0  0.56390  0.97302  0.07674  1.0000
  S   S354      1.0  0.56311  0.97291  0.23351  1.0000
  Mo  Mo176     1.0  0.95481  0.76258  0.16052  1.0000
  Mo  Mo177     1.0  0.88810  0.81645  0.16221  1.0000
  S   S355      1.0  0.95123  0.82191  0.08383  1.0000
  S   S356      1.0  0.95049  0.82005  0.24042  1.0000
  Mo  Mo178     1.0  0.82097  0.87020  0.16216  1.0000
  S   S357      1.0  0.88443  0.87527  0.08478  1.0000
  S   S358      1.0  0.88298  0.87391  0.24136  1.0000
  Mo  Mo179     1.0  0.75395  0.92434  0.16043  1.0000
  S   S359      1.0  0.81739  0.92859  0.08377  1.0000
  S   S360      1.0  0.81550  0.92799  0.24038  1.0000
  Mo  Mo180     1.0  0.68748  0.97929  0.15789  1.0000
  S   S361      1.0  0.75050  0.98257  0.08136  1.0000
  S   S362      1.0  0.74868  0.98265  0.23802  1.0000
  Mo  Mo181     1.0  0.94187  0.93727  0.16421  1.0000
  Mo  Mo182     1.0  0.87461  0.99095  0.16315  1.0000
  S   S363      1.0  0.93762  0.99536  0.08583  1.0000
  S   S364      1.0  0.93689  0.99539  0.24240  1.0000
