24
Lattice="6.580117576008655 4.6529536229063195 0.0 3.2790582117679357 -4.637190159815929 0.0 0.0 0.0 27.757492098806452" Properties=species:S:1:pos:R:3:atom_types:I:1:forces:R:3 energy=-4524.17431935278 free_energy=-4524.17431935278 pbc="T T T"
P        1.73159950      -1.90369257       1.17829105        3       0.00091660      -0.00048105       0.00005965
P        3.32135888      -4.12994007       3.64130361        0       0.00036664       0.00003111       0.00038901
P        4.90163177      -2.56850185       3.74020578        1      -0.00066000      -0.00027716      -0.00018640
P        3.29735888      -0.21456723       1.36437860        2      -0.00070937       0.00015195       0.00029902
P        4.94173749      -1.92878179       1.36544267        3       0.00062015      -0.00030339      -0.00073816
P        3.30091681       0.41792565       3.78826805        0      -0.00030313       0.00028514       0.00028411
P        4.91873404       1.91643782       3.78826717        1       0.00030236      -0.00028616       0.00028179
P        4.92228821       2.54892994       1.36437756        3       0.00070962      -0.00015015       0.00029876
P        6.55697207      -0.37403730       1.36544461        2      -0.00062195       0.00030519      -0.00073816
P        6.59707901       0.26567970       3.74020569        0       0.00065949       0.00027768      -0.00018743
P        8.17735268       1.82711935       3.64130194        1      -0.00036870      -0.00003034       0.00038901
P        6.48804944       4.23805185       1.17828973        2      -0.00091634       0.00048182       0.00006068
P        2.06139225      -2.37008104      -1.17829590        5      -0.00014141       0.00102021      -0.00005219
P        7.32289899      -0.84596894      -1.36437949        5       0.00008845       0.00072222      -0.00029568
P        4.77332307      -1.66432748      -3.78826558        6       0.00017458      -0.00037435      -0.00029285
P        6.72539026      -0.63850297      -3.78826485        7      -0.00017484       0.00037461      -0.00029105
P        4.17581357      -1.45686391      -1.36438051        4      -0.00008819      -0.00072377      -0.00029619
P        3.10771849       0.66485136      -1.36543895        5      -0.00007379       0.00068777       0.00074125
P        0.49233462      -0.12919246      -3.64130425        6       0.00016121       0.00033424      -0.00038721
P        2.49120614       0.84027011      -3.74020425        7      -0.00047103      -0.00052939       0.00018023
P        9.43731824       0.06725035      -1.17829466        4       0.00014270      -0.00102021      -0.00005322
P        5.72844722       1.49408554      -3.74020410        6       0.00047205       0.00052990       0.00018101
P        7.72732009       2.46354842      -3.64130314        7      -0.00016069      -0.00033656      -0.00038695
P        5.11193689       1.66950307      -1.36544079        4       0.00007508      -0.00068931       0.00074176
