88
Lattice="6.5481012353272785 -13.890246758152541 0.0 -9.88530469456931 -4.660103846707971 0.0 0.0 0.0 27.757489757840784" Properties=species:S:1:pos:R:3:atom_types:I:1:forces:R:3 energy=-16574.448786162848 free_energy=-16574.448786162848 pbc="T T T"
P       -8.21962177      -7.36729382       3.68714869        1      -0.01550401       0.00456499       0.00132900
P       -8.23220968      -6.48490404       1.59478587        3       0.01345227      -0.01845075      -0.00899449
P       -4.98295822     -12.01365529       3.65464053        1      -0.00549625       0.00228057       0.00061449
P       -6.61964136      -9.66228723       1.49217915        2       0.00188976       0.01147586       0.01237446
P       -4.97638592     -11.18532246       1.54098583        3       0.00666353      -0.01170520       0.00515609
P       -6.58249847      -8.87137011       3.61660557        0       0.00049262      -0.00213402       0.01765114
P       -4.93932170      -7.36857128       3.62901352        1      -0.00680545       0.00032165       0.00417239
P       -6.58550162      -4.97269097       1.66343376        2       0.00477248       0.00315217       0.01348004
P       -4.94357192      -6.48675024       1.53499204        3       0.01294602      -0.01591307      -0.00193733
P       -6.57974336      -4.24433278       3.80979901        0       0.00806195      -0.00164114      -0.01292674
P       -4.92477021      -2.73741214       3.79890656        1      -0.01608199       0.00724948       0.00198026
P       -3.35509322     -18.14298081       3.79890912        0       0.01608148      -0.00725257       0.00197718
P       -1.70012092     -16.63605927       3.80979672        1      -0.00805989       0.00163599      -0.01292314
P       -3.33629215     -14.39364764       1.53498734        2      -0.01294422       0.01591076      -0.00193476
P       -1.69436097     -15.90770649       1.66342998        3      -0.00477531      -0.00315037       0.01348415
P       -3.34054175     -13.51183125       3.62901068        0       0.00680288      -0.00032036       0.00417393
P       -1.69736664     -12.00903075       3.61660521        1      -0.00049057       0.00213479       0.01764908
P       -3.30348021      -9.69508018       1.54098373        2      -0.00666301       0.01170623       0.00516098
P       -1.66022394     -11.21811465       1.49217821        3      -0.00189002      -0.01147612       0.01237266
P       -3.29690659      -8.86674876       3.65463896        0       0.00549573      -0.00227645       0.00061681
P       -1.65857606      -7.36021696       3.65648233        1      -0.00678848      -0.00260633      -0.01033018
P       -3.29798716      -4.96207412       1.58337951        2       0.00737238       0.00627015       0.01146429
P       -1.67138934      -6.49230098       1.55410964        3       0.00334449      -0.00629020      -0.00506276
P       -3.27364690      -4.24231202       3.73489295        0      -0.00154138       0.00280764       0.00729371
P       -1.62994172      -2.72970877       3.74904438        1      -0.01219911       0.00443130       0.00561040
P       -1.62782310      -1.89801556       1.63974365        3       0.01508081      -0.00991160       0.01076624
P       -0.04765320     -14.39549274       1.59478504        2      -0.01345124       0.01845204      -0.00899706
P        1.62312536     -15.87632948       1.66213150        3       0.00057927       0.00046023       0.01021756
P       -0.06024126     -13.51310505       3.68714873        0       0.01550247      -0.00456397       0.00132797
P        1.57598281     -11.99917154       3.70442646        1      -0.00145782       0.00413228      -0.00269015
P       -0.01892470      -9.67921558       1.50942842        2      -0.00393019      -0.00019566       0.00420144
P        1.60513687     -11.21924400       1.57605228        3       0.00103410      -0.02328802       0.00588191
P       -0.02014852      -8.86089169       3.62714656        0       0.00567648      -0.00168999      -0.00122127
P        1.62559266      -7.35940763       3.62714836        1      -0.00567725       0.00169436      -0.00122333
P        0.00030706      -5.00105053       1.57605450        2      -0.00103487       0.02328725       0.00588268
P        1.62436744      -6.54107938       1.50943157        3       0.00393302       0.00019438       0.00419655
P        0.02946125      -4.22111968       3.70442740        0       0.00145987      -0.00413382      -0.00269015
P       -0.01767799      -0.34396117       1.66213472        2      -0.00058210      -0.00045714       0.01021396
P        3.23326993     -14.32227439       1.63974490        2      -0.01508132       0.00991495       0.01076238
P        3.23538778     -13.49058052       3.74904594        0       0.01219808      -0.00443387       0.00560578
P        4.87909181     -11.97797602       3.73489042        1       0.00154369      -0.00281176       0.00729473
P        3.27683355      -9.72799324       1.55410512        2      -0.00334423       0.00628789      -0.00505916
P        4.90343259     -11.25821964       1.58337495        3      -0.00737341      -0.00627066       0.01146815
P        3.26402066      -8.86008196       3.65647930        0       0.00678668       0.00260993      -0.01032581
P       -3.69292047     -16.11393526      -1.59478389        5      -0.00566954       0.02212177       0.00900169
P       -4.36558545     -15.54271938      -3.68714698        7      -0.00634137      -0.01486380      -0.00133466
P       -0.91299847     -16.26499530      -3.80979665        6       0.00386771       0.00725925       0.01291928
P        1.30258220     -15.94727152      -3.79890777        7      -0.00463750      -0.01702353      -0.00198438
P       -1.47851652     -15.80595392      -1.66343035        4       0.00546771       0.00168356      -0.01347618
P       -1.60162591     -13.57589587      -1.53498638        5      -0.00403612       0.02010063       0.00193861
P       -4.48405072     -13.32272289      -3.61660376        6      -0.00133697       0.00173524      -0.01765448
P       -2.27915663     -13.01147652      -3.62900940        7      -0.00408008      -0.00545717      -0.00417701
P       -5.11780245     -12.84807651      -1.49217803        4       0.01005610      -0.00584720      -0.01236881
P       -5.24699300     -10.61128533      -1.54098391        5      -0.00479074       0.01258941      -0.00515635
P       -5.89015314     -10.08924943      -3.65463848        7      -0.00173781      -0.00569294      -0.00062555
P        4.04810082     -13.93814952      -1.63974412        5       0.00195121       0.01793884      -0.01075492
P        1.19238862     -13.71595184      -3.73488818        6       0.00118476      -0.00298017      -0.00730245
P        3.40518218     -13.41053694      -3.74904436        7      -0.00433822      -0.01223434      -0.00561452
P        0.62167786     -13.27671297      -1.58337368        4       0.00952645       0.00169359      -0.01146172
P        0.47633971     -11.04819491      -1.55410503        5      -0.00272280       0.00658537       0.00506430
P       -2.38970611     -10.79115225      -3.65463973        6       0.00173549       0.00569551      -0.00062195
P       -0.18501641     -10.48601830      -3.65647882        7      -0.00633006      -0.00357718       0.01032067
P       -3.03286712     -10.26911353      -1.54098598        4       0.00479022      -0.01259044      -0.00515198
P       -3.16205865      -8.03232258      -1.49217983        5      -0.01005456       0.00584695      -0.01237086
P       -6.00070488      -7.86892521      -3.62901360        6       0.00407983       0.00545897      -0.00417547
P       -3.79581110      -7.55767643      -3.61660522        7       0.00133620      -0.00173601      -0.01765654
P       -6.67823908      -7.30450241      -1.53499259        4       0.00403689      -0.02010243       0.00194093
P       -6.80134939      -5.07444526      -1.66343537        5      -0.00546771      -0.00168047      -0.01347078
P       -9.58245167      -4.93312322      -3.79890561        6       0.00464058       0.01702045      -0.00198669
P       -7.36687117      -4.61539791      -3.80979968        7      -0.00386488      -0.00726517       0.01292185
P        6.27151436     -13.68499915      -1.66213080        4      -0.00072325      -0.00015452      -0.01021396
P        3.31066447     -11.18141377      -3.70442602        6      -0.00225949       0.00375612       0.00268166
P        2.69047428     -10.70759758      -1.57605330        4       0.01730430      -0.01561508      -0.00587111
P        2.53595951      -8.47479933      -1.50943047        5       0.00265209       0.00290612      -0.00419090
P       -0.30003047      -8.26718063      -3.62715025        6       0.00230191       0.00546051       0.00121870
P        1.90548119      -7.95311658      -3.62714786        7      -0.00230499      -0.00545691       0.00121587
P       -0.93051199      -7.74549301      -1.50943469        4      -0.00265364      -0.00290920      -0.00418576
P       -1.08502775      -5.51269547      -1.57605703        5      -0.01730301       0.01561457      -0.00587137
P       -3.91427931      -5.33768022      -3.68714838        6       0.00634240       0.01486509      -0.00133672
P       -1.70522061      -5.03887733      -3.70442841        7       0.00225871      -0.00375947       0.00268089
P       -4.58694587      -4.76646385      -1.59478612        4       0.00566877      -0.02212023       0.00899963
P       -4.66607250      -2.53529504      -1.66213428        5       0.00072171       0.00015915      -0.01020908
P        1.79046629      -5.73427902      -3.65648294        6       0.00632800       0.00358103       0.01032452
P        1.12910636      -5.17209826      -1.55411119        4       0.00272383      -0.00658768       0.00506944
P        0.98376696      -2.94358103      -1.58337983        5      -0.00952491      -0.00169204      -0.01145838
P       -1.79974127      -2.80975438      -3.74904416        6       0.00434131       0.01223305      -0.00561889
P        0.41305212      -2.50433746      -3.73489228        7      -0.00118296       0.00297554      -0.00730116
P       -2.44265919      -2.28214416      -1.63974369        4      -0.00195327      -0.01793576      -0.01075981
