data_image0
_chemical_formula_structural       P96
_chemical_formula_sum              "P96"
_cell_length_a       8.05903
_cell_length_b       5.67941
_cell_length_c       100
_cell_angle_alpha    90
_cell_angle_beta     90
_cell_angle_gamma    90

_space_group_name_H-M_alt    "P 1"
_space_group_IT_number       1

loop_
  _space_group_symop_operation_xyz
  'x, y, z'

loop_
  _atom_site_type_symbol
  _atom_site_label
  _atom_site_symmetry_multiplicity
  _atom_site_fract_x
  _atom_site_fract_y
  _atom_site_fract_z
  _atom_site_occupancy
  P   P1        1.0  0.02953  0.44095  0.98946  1.0000
  P   P2        1.0  0.02953  0.94095  0.01054  1.0000
  P   P3        1.0  0.30381  0.89239  0.01054  1.0000
  P   P4        1.0  0.30381  0.39239  0.98946  1.0000
  P   P5        1.0  0.36286  0.77428  0.98946  1.0000
  P   P6        1.0  0.36286  0.27428  0.01054  1.0000
  P   P7        1.0  0.63714  0.22572  0.01054  1.0000
  P   P8        1.0  0.69619  0.10761  0.98946  1.0000
  P   P9        1.0  0.63714  0.72572  0.98946  1.0000
  P   P10       1.0  0.69619  0.60761  0.01054  1.0000
  P   P11       1.0  0.97047  0.55905  0.01054  1.0000
  P   P12       1.0  0.97047  0.05905  0.98946  1.0000
  P   P13       1.0  0.02953  0.55905  0.05946  1.0000
  P   P14       1.0  0.69619  0.89239  0.05946  1.0000
  P   P15       1.0  0.36286  0.72572  0.03837  1.0000
  P   P16       1.0  0.63714  0.77428  0.03837  1.0000
  P   P17       1.0  0.30381  0.60761  0.05946  1.0000
  P   P18       1.0  0.36286  0.22572  0.05946  1.0000
  P   P19       1.0  0.02953  0.05905  0.03837  1.0000
  P   P20       1.0  0.30381  0.10761  0.03837  1.0000
  P   P21       1.0  0.97047  0.94095  0.05946  1.0000
  P   P22       1.0  0.69619  0.39239  0.03837  1.0000
  P   P23       1.0  0.97047  0.44095  0.03837  1.0000
  P   P24       1.0  0.63714  0.27428  0.05946  1.0000
  P   P25       1.0  0.02953  0.44095  0.08946  1.0000
  P   P26       1.0  0.02953  0.94095  0.11054  1.0000
  P   P27       1.0  0.30381  0.89239  0.11054  1.0000
  P   P28       1.0  0.30381  0.39239  0.08946  1.0000
  P   P29       1.0  0.36286  0.77428  0.08946  1.0000
  P   P30       1.0  0.36286  0.27428  0.11054  1.0000
  P   P31       1.0  0.63714  0.22572  0.11054  1.0000
  P   P32       1.0  0.69619  0.10761  0.08946  1.0000
  P   P33       1.0  0.63714  0.72572  0.08946  1.0000
  P   P34       1.0  0.69619  0.60761  0.11054  1.0000
  P   P35       1.0  0.97047  0.55905  0.11054  1.0000
  P   P36       1.0  0.97047  0.05905  0.08946  1.0000
  P   P37       1.0  0.02953  0.55905  0.15946  1.0000
  P   P38       1.0  0.69619  0.89239  0.15946  1.0000
  P   P39       1.0  0.36286  0.72572  0.13837  1.0000
  P   P40       1.0  0.63714  0.77428  0.13837  1.0000
  P   P41       1.0  0.30381  0.60761  0.15946  1.0000
  P   P42       1.0  0.36286  0.22572  0.15946  1.0000
  P   P43       1.0  0.02953  0.05905  0.13837  1.0000
  P   P44       1.0  0.30381  0.10761  0.13837  1.0000
  P   P45       1.0  0.97047  0.94095  0.15946  1.0000
  P   P46       1.0  0.69619  0.39239  0.13837  1.0000
  P   P47       1.0  0.97047  0.44095  0.13837  1.0000
  P   P48       1.0  0.63714  0.27428  0.15946  1.0000
  P   P49       1.0  0.02953  0.44095  0.18946  1.0000
  P   P50       1.0  0.02953  0.94095  0.21054  1.0000
  P   P51       1.0  0.30381  0.89239  0.21054  1.0000
  P   P52       1.0  0.30381  0.39239  0.18946  1.0000
  P   P53       1.0  0.36286  0.77428  0.18946  1.0000
  P   P54       1.0  0.36286  0.27428  0.21054  1.0000
  P   P55       1.0  0.63714  0.22572  0.21054  1.0000
  P   P56       1.0  0.69619  0.10761  0.18946  1.0000
  P   P57       1.0  0.63714  0.72572  0.18946  1.0000
  P   P58       1.0  0.69619  0.60761  0.21054  1.0000
  P   P59       1.0  0.97047  0.55905  0.21054  1.0000
  P   P60       1.0  0.97047  0.05905  0.18946  1.0000
  P   P61       1.0  0.02953  0.55905  0.25946  1.0000
  P   P62       1.0  0.69619  0.89239  0.25946  1.0000
  P   P63       1.0  0.36286  0.72572  0.23837  1.0000
  P   P64       1.0  0.63714  0.77428  0.23837  1.0000
  P   P65       1.0  0.30381  0.60761  0.25946  1.0000
  P   P66       1.0  0.36286  0.22572  0.25946  1.0000
  P   P67       1.0  0.02953  0.05905  0.23837  1.0000
  P   P68       1.0  0.30381  0.10761  0.23837  1.0000
  P   P69       1.0  0.97047  0.94095  0.25946  1.0000
  P   P70       1.0  0.69619  0.39239  0.23837  1.0000
  P   P71       1.0  0.97047  0.44095  0.23837  1.0000
  P   P72       1.0  0.63714  0.27428  0.25946  1.0000
  P   P73       1.0  0.02953  0.44095  0.28946  1.0000
  P   P74       1.0  0.02953  0.94095  0.31054  1.0000
  P   P75       1.0  0.30381  0.89239  0.31054  1.0000
  P   P76       1.0  0.30381  0.39239  0.28946  1.0000
  P   P77       1.0  0.36286  0.77428  0.28946  1.0000
  P   P78       1.0  0.36286  0.27428  0.31054  1.0000
  P   P79       1.0  0.63714  0.22572  0.31054  1.0000
  P   P80       1.0  0.69619  0.10761  0.28946  1.0000
  P   P81       1.0  0.63714  0.72572  0.28946  1.0000
  P   P82       1.0  0.69619  0.60761  0.31054  1.0000
  P   P83       1.0  0.97047  0.55905  0.31054  1.0000
  P   P84       1.0  0.97047  0.05905  0.28946  1.0000
  P   P85       1.0  0.02953  0.55905  0.35946  1.0000
  P   P86       1.0  0.69619  0.89239  0.35946  1.0000
  P   P87       1.0  0.36286  0.72572  0.33837  1.0000
  P   P88       1.0  0.63714  0.77428  0.33837  1.0000
  P   P89       1.0  0.30381  0.60761  0.35946  1.0000
  P   P90       1.0  0.36286  0.22572  0.35946  1.0000
  P   P91       1.0  0.02953  0.05905  0.33837  1.0000
  P   P92       1.0  0.30381  0.10761  0.33837  1.0000
  P   P93       1.0  0.97047  0.94095  0.35946  1.0000
  P   P94       1.0  0.69619  0.39239  0.33837  1.0000
  P   P95       1.0  0.97047  0.44095  0.33837  1.0000
  P   P96       1.0  0.63714  0.27428  0.35946  1.0000
